ac_opf/testcases/nesta_case189_edin__api.m
%%%%%%%%%%%%%%%%%%%%%%%%%%%%%%%%%%%%%%%%%%%%%%%%%%%%%%%%%%%%%%%%%%%%%%%%%%%
%%%%                                                                  %%%%%
%%%%      NICTA Energy System Test Case Archive (NESTA) - v0.7.0      %%%%%
%%%%            Optimal Power Flow - Active Power Increase            %%%%%
%%%%                         05 - June - 2017                         %%%%%
%%%%                                                                  %%%%%
%%%%%%%%%%%%%%%%%%%%%%%%%%%%%%%%%%%%%%%%%%%%%%%%%%%%%%%%%%%%%%%%%%%%%%%%%%%
function mpc = nesta_case189_edin__api
mpc.version = '2';
mpc.baseMVA = 100.0;

%% area data
%	area	refbus
mpc.areas = [
	1	 1;
];

%% bus data
%	bus_i	type	Pd	Qd	Gs	Bs	area	Vm	Va	baseKV	zone	Vmax	Vmin
mpc.bus = [
	1	 1	 0.00	 0.00	 0.0	 0.0	 1	    1.05019	  -13.38308	 220.0	 1	    1.10000	    0.90000;
	2	 2	 0.88	 0.26	 0.0	 0.0	 1	    1.10000	   -2.97474	 13.8	 1	    1.10000	    0.90000;
	3	 2	 5.27	 1.53	 0.0	 0.0	 1	    1.10000	   -1.63250	 13.8	 1	    1.10000	    0.90000;
	4	 2	 0.00	 0.00	 0.0	 0.0	 1	    1.10000	  -12.23122	 13.8	 1	    1.10000	    0.90000;
	5	 1	 0.00	 0.00	 0.0	 0.0	 1	    1.09534	   -3.50027	 66.0	 1	    1.10000	    0.90000;
	6	 1	 0.00	 0.00	 0.0	 0.0	 1	    1.09533	   -3.49960	 66.0	 1	    1.10000	    0.90000;
	7	 1	 0.00	 0.00	 0.0	 0.0	 1	    1.06804	  -10.62375	 220.0	 1	    1.10000	    0.90000;
	8	 2	 0.00	 0.00	 0.0	 0.0	 1	    1.10000	  -10.67332	 10.5	 1	    1.10000	    0.90000;
	9	 2	 0.00	 0.00	 0.0	 0.0	 1	    1.10000	    4.52025	 10.5	 1	    1.10000	    0.90000;
	10	 3	 0.00	 0.00	 0.0	 0.0	 1	    1.10000	    0.00000	 10.5	 1	    1.10000	    0.90000;
	11	 1	 0.00	 0.00	 0.0	 0.0	 1	    1.08137	  -12.68948	 132.0	 1	    1.10000	    0.90000;
	12	 1	 0.00	 0.00	 0.0	 0.0	 1	    1.06466	  -11.43401	 220.0	 1	    1.10000	    0.90000;
	13	 2	 0.00	 0.00	 0.0	 0.0	 1	    1.10000	  -10.41040	 13.8	 1	    1.10000	    0.90000;
	14	 2	 0.00	 0.00	 0.0	 0.0	 1	    1.10000	  -11.49031	 13.8	 1	    1.10000	    0.90000;
	15	 1	 0.00	 0.00	 0.0	 0.0	 1	    1.06932	  -10.59828	 220.0	 1	    1.10000	    0.90000;
	16	 2	 0.00	 0.00	 0.0	 0.0	 1	    1.09700	   -9.74140	 11.0	 1	    1.10000	    0.90000;
	17	 1	 0.00	 0.00	 0.0	 0.0	 1	    1.04876	  -13.45076	 220.0	 1	    1.10000	    0.90000;
	18	 2	 0.00	 0.00	 0.0	 0.0	 1	    1.10000	   -3.68662	 11.0	 1	    1.10000	    0.90000;
	19	 2	 0.00	 0.00	 0.0	 0.0	 1	    1.10000	   -6.96272	 11.0	 1	    1.10000	    0.90000;
	20	 1	 0.00	 0.00	 0.0	 0.0	 1	    1.04892	  -13.45166	 220.0	 1	    1.10000	    0.90000;
	21	 1	 0.00	 0.00	 0.0	 0.0	 1	    1.04737	  -13.98927	 220.0	 1	    1.10000	    0.90000;
	22	 1	 10.98	 7.10	 0.0	 0.0	 1	    1.05255	   -8.36534	 66.0	 1	    1.10000	    0.90000;
	23	 1	 4.25	 1.89	 0.0	 0.0	 1	    1.06849	   -6.39514	 66.0	 1	    1.10000	    0.90000;
	24	 1	 8.40	 4.73	 0.0	 0.0	 1	    1.05033	   -9.52234	 66.0	 1	    1.10000	    0.90000;
	25	 1	 0.00	 0.00	 0.0	 0.0	 1	    1.03295	  -17.09834	 220.0	 1	    1.10000	    0.90000;
	26	 1	 0.00	 0.00	 0.0	 0.0	 1	    1.07371	  -12.45424	 132.0	 1	    1.10000	    0.90000;
	27	 2	 0.00	 0.00	 0.0	 0.0	 1	    1.10000	   -7.28650	 10.5	 1	    1.10000	    0.90000;
	28	 2	 0.00	 0.00	 0.0	 0.0	 1	    1.10000	   -8.06719	 10.5	 1	    1.10000	    0.90000;
	29	 2	 0.00	 0.00	 0.0	 0.0	 1	    1.10000	  -11.25518	 10.5	 1	    1.10000	    0.90000;
	30	 1	 0.00	 0.00	 0.0	 0.0	 1	    1.08288	  -13.21493	 66.0	 1	    1.10000	    0.90000;
	31	 1	 0.00	 0.00	 0.0	 0.0	 1	    1.09187	  -13.34495	 66.0	 1	    1.10000	    0.90000;
	32	 2	 0.00	 0.00	 0.0	 0.0	 1	    1.09840	  -13.29813	 6.6	 1	    1.10000	    0.90000;
	33	 2	 0.00	 0.00	 0.0	 0.0	 1	    1.10000	  -13.13024	 6.6	 1	    1.10000	    0.90000;
	34	 1	 0.00	 0.00	 0.0	 0.0	 1	    1.09187	  -13.34495	 6.6	 1	    1.10000	    0.90000;
	35	 1	 0.00	 0.00	 0.0	 0.0	 1	    1.08346	  -13.33551	 66.0	 1	    1.10000	    0.90000;
	36	 2	 0.00	 0.00	 0.0	 0.0	 1	    1.10000	  -13.39279	 6.6	 1	    1.10000	    0.90000;
	37	 1	 4.24	 1.23	 0.0	 0.0	 1	    1.05662	  -16.63413	 11.0	 1	    1.10000	    0.90000;
	38	 1	 8.76	 3.53	 0.0	 0.0	 1	    1.08346	  -13.33593	 66.0	 1	    1.10000	    0.90000;
	39	 1	 0.00	 0.00	 0.0	 0.0	 1	    1.01940	  -19.35996	 220.0	 1	    1.10000	    0.90000;
	40	 1	 0.00	 0.00	 0.0	 0.0	 1	    1.03052	  -15.93595	 132.0	 1	    1.10000	    0.90000;
	41	 1	 0.00	 0.00	 0.0	 0.0	 1	    1.01981	  -19.35161	 220.0	 1	    1.10000	    0.90000;
	42	 2	 0.00	 0.00	 0.0	 0.0	 1	    1.10000	   -8.30976	 11.0	 1	    1.10000	    0.90000;
	43	 2	 0.00	 0.00	 0.0	 0.0	 1	    1.10000	  -19.57602	 11.0	 1	    1.10000	    0.90000;
	44	 1	 12.37	 5.12	 0.0	 0.0	 1	    1.05003	  -12.19243	 66.0	 1	    1.10000	    0.90000;
	45	 1	 6.01	 2.73	 0.0	 0.0	 1	    1.04453	  -12.43508	 33.0	 1	    1.10000	    0.90000;
	46	 1	 0.00	 0.00	 0.0	 0.0	 1	    1.03224	  -16.82089	 220.0	 1	    1.10000	    0.90000;
	47	 1	 0.00	 0.00	 0.0	 0.0	 1	    1.03052	  -15.93595	 132.0	 1	    1.10000	    0.90000;
	48	 1	 0.00	 0.00	 0.0	 0.0	 1	    1.01940	  -19.35997	 220.0	 1	    1.10000	    0.90000;
	49	 1	 11.31	 2.50	 0.0	 0.0	 1	    1.07699	  -20.11541	 132.0	 1	    1.10000	    0.90000;
	50	 2	 0.00	 0.00	 0.0	 0.0	 1	    1.10000	  -20.19881	 11.0	 1	    1.10000	    0.90000;
	51	 2	 0.00	 0.00	 0.0	 0.0	 1	    1.10000	  -15.99915	 11.0	 1	    1.10000	    0.90000;
	52	 2	 0.00	 0.00	 0.0	 0.0	 1	    1.10000	  -20.19881	 11.0	 1	    1.10000	    0.90000;
	53	 2	 0.00	 0.00	 0.0	 0.0	 1	    1.10000	  -19.15514	 11.0	 1	    1.10000	    0.90000;
	54	 1	 9.33	 2.05	 0.0	 0.0	 1	    1.07813	  -13.75473	 66.0	 1	    1.10000	    0.90000;
	55	 1	 0.00	 0.00	 0.0	 0.0	 1	    1.07618	  -20.14519	 132.0	 1	    1.10000	    0.90000;
	56	 1	 0.00	 0.00	 0.0	 0.0	 1	    1.06161	  -20.81401	 132.0	 1	    1.10000	    0.90000;
	57	 1	 0.00	 0.00	 0.0	 0.0	 1	    1.01108	  -20.59213	 220.0	 1	    1.10000	    0.90000;
	58	 1	 0.00	 0.00	 0.0	 0.3	 1	    1.05471	  -20.62636	 132.0	 1	    1.10000	    0.90000;
	59	 1	 0.00	 0.00	 0.0	 0.0	 1	    1.05142	  -20.81463	 132.0	 1	    1.10000	    0.90000;
	60	 1	 300.83	 68.47	 0.0	 0.0	 1	    0.93379	  -31.79124	 21.0	 1	    1.10000	    0.90000;
	61	 1	 0.00	 0.00	 0.0	 0.0	 1	    0.99173	  -22.24652	 220.0	 1	    1.10000	    0.90000;
	62	 1	 0.00	 0.00	 0.0	 0.0	 1	    0.99356	  -22.04886	 220.0	 1	    1.10000	    0.90000;
	63	 1	 164.96	 36.81	 0.0	 0.0	 1	    0.91732	  -34.53236	 33.0	 1	    1.10000	    0.90000;
	64	 1	 0.00	 0.00	 0.0	 0.0	 1	    0.99548	  -21.92481	 220.0	 1	    1.10000	    0.90000;
	65	 1	 74.89	 12.00	 0.0	 0.0	 1	    0.97449	  -27.22204	 33.0	 1	    1.10000	    0.90000;
	66	 1	 0.00	 0.00	 0.0	 0.0	 1	    0.99379	  -22.11067	 220.0	 1	    1.10000	    0.90000;
	67	 1	 119.82	 20.00	 0.0	 0.0	 1	    0.95401	  -30.80234	 33.0	 1	    1.10000	    0.90000;
	68	 1	 83.87	 14.00	 0.0	 0.0	 1	    0.96883	  -28.08936	 33.0	 1	    1.10000	    0.90000;
	69	 1	 0.00	 0.00	 0.0	 0.0	 1	    1.05667	  -20.96139	 132.0	 1	    1.10000	    0.90000;
	70	 1	 50.98	 20.90	 0.0	 0.0	 1	    1.04294	  -22.52254	 33.0	 1	    1.10000	    0.90000;
	71	 1	 0.00	 0.00	 0.0	 0.08	 1	    0.99630	  -21.81573	 220.0	 1	    1.10000	    0.90000;
	72	 1	 0.00	 0.00	 0.0	 0.43	 1	    1.00341	  -20.15472	 132.0	 1	    1.10000	    0.90000;
	73	 1	 0.00	 0.00	 0.0	 0.0	 1	    1.00266	  -20.21666	 132.0	 1	    1.10000	    0.90000;
	74	 1	 25.96	 9.28	 0.0	 0.0	 1	    0.99035	  -21.66116	 11.0	 1	    1.10000	    0.90000;
	75	 1	 0.00	 0.00	 0.0	 0.0	 1	    1.01300	  -20.04666	 220.0	 1	    1.10000	    0.90000;
	76	 1	 0.00	 0.00	 0.0	 0.75	 1	    0.98480	  -24.15517	 220.0	 1	    1.10000	    0.90000;
	77	 1	 0.82	 0.24	 0.0	 0.0	 1	    1.00387	  -19.08827	 132.0	 1	    1.10000	    0.90000;
	78	 1	 11.62	 3.38	 0.0	 0.0	 1	    1.00067	  -19.61518	 66.0	 1	    1.10000	    0.90000;
	79	 1	 0.00	 0.00	 0.0	 0.0	 1	    1.00067	  -19.61518	 11.0	 1	    1.10000	    0.90000;
	80	 1	 187.23	 31.30	 0.0	 0.0	 1	    0.98217	  -24.58595	 220.0	 1	    1.10000	    0.90000;
	81	 1	 567.63	 92.49	 0.0	 0.0	 1	    0.98185	  -24.77251	 220.0	 1	    1.10000	    0.90000;
	82	 1	 0.00	 0.00	 0.0	 0.0	 1	    1.05072	  -20.87060	 132.0	 1	    1.10000	    0.90000;
	83	 1	 38.91	 18.84	 0.0	 0.0	 1	    1.04961	  -20.91858	 11.0	 1	    1.10000	    0.90000;
	84	 1	 0.00	 0.00	 0.0	 0.0	 1	    1.05566	  -21.02196	 132.0	 1	    1.10000	    0.90000;
	85	 1	 23.71	 10.92	 0.0	 0.0	 1	    1.04865	  -21.74132	 11.0	 1	    1.10000	    0.90000;
	86	 1	 0.00	 0.00	 0.0	 0.0	 1	    1.05023	  -20.89122	 132.0	 1	    1.10000	    0.90000;
	87	 1	 12.49	 8.96	 0.0	 0.0	 1	    1.04470	  -21.26853	 11.0	 1	    1.10000	    0.90000;
	88	 1	 0.00	 0.00	 0.0	 0.0	 1	    1.00035	  -20.60277	 132.0	 1	    1.10000	    0.90000;
	89	 1	 23.17	 8.04	 0.0	 0.0	 1	    0.99354	  -21.54783	 11.0	 1	    1.10000	    0.90000;
	90	 1	 0.00	 0.00	 0.0	 0.0	 1	    1.00149	  -20.52041	 132.0	 1	    1.10000	    0.90000;
	91	 1	 12.37	 4.25	 0.0	 0.0	 1	    0.99793	  -21.02224	 11.0	 1	    1.10000	    0.90000;
	92	 1	 0.00	 0.00	 0.0	 0.0	 1	    1.00153	  -20.51197	 132.0	 1	    1.10000	    0.90000;
	93	 1	 22.63	 10.00	 0.0	 0.0	 1	    1.05791	  -14.42808	 132.0	 1	    1.10000	    0.90000;
	94	 1	 0.00	 0.00	 0.0	 0.0	 1	    1.07508	  -12.62298	 132.0	 1	    1.10000	    0.90000;
	95	 1	 0.00	 0.00	 0.0	 0.0	 1	    1.07508	  -12.62298	 11.0	 1	    1.10000	    0.90000;
	96	 1	 0.00	 0.00	 0.0	 0.0	 1	    1.07137	  -13.03271	 132.0	 1	    1.10000	    0.90000;
	97	 1	 0.00	 0.00	 0.0	 0.0	 1	    1.08489	  -12.04707	 132.0	 1	    1.10000	    0.90000;
	98	 2	 0.00	 0.00	 0.0	 0.0	 1	    1.10000	  -12.07097	 11.0	 1	    1.10000	    0.90000;
	99	 2	 0.00	 0.00	 0.0	 0.0	 1	    1.10000	   -9.26218	 11.0	 1	    1.10000	    0.90000;
	100	 1	 0.00	 0.00	 0.0	 0.0	 1	    1.08489	  -12.04707	 11.0	 1	    1.10000	    0.90000;
	101	 1	 0.00	 0.00	 0.0	 0.0	 1	    1.08489	  -12.04707	 11.0	 1	    1.10000	    0.90000;
	102	 2	 5.66	 1.25	 0.0	 0.0	 1	    1.10000	   -8.30356	 11.0	 1	    1.10000	    0.90000;
	103	 1	 0.00	 0.00	 0.0	 0.0	 1	    1.04030	  -15.19808	 132.0	 1	    1.10000	    0.90000;
	104	 2	 33.14	 4.05	 0.0	 0.0	 1	    1.10000	   -8.95746	 66.0	 1	    1.10000	    0.90000;
	105	 1	 8.01	 2.33	 0.0	 0.0	 1	    1.09828	   -9.17876	 19.0	 1	    1.10000	    0.90000;
	106	 1	 0.00	 0.00	 0.0	 0.0	 1	    1.09828	   -9.17876	 0.41	 1	    1.10000	    0.90000;
	107	 1	 0.00	 0.00	 0.0	 0.0	 1	    1.10000	   -8.95746	 11.0	 1	    1.10000	    0.90000;
	108	 1	 0.00	 0.00	 0.0	 0.0	 1	    1.09828	   -9.17876	 11.0	 1	    1.10000	    0.90000;
	109	 1	 0.00	 0.00	 0.0	 0.0	 1	    1.06924	   -8.31861	 132.0	 1	    1.10000	    0.90000;
	110	 1	 2.70	 0.20	 0.0	 0.0	 1	    1.06890	   -8.45157	 19.0	 1	    1.10000	    0.90000;
	111	 1	 0.00	 0.00	 0.0	 0.0	 1	    1.06890	   -8.45157	 0.41	 1	    1.10000	    0.90000;
	112	 1	 0.00	 0.00	 0.0	 0.0	 1	    1.06890	   -8.45157	 11.0	 1	    1.10000	    0.90000;
	113	 1	 0.00	 0.00	 0.0	 0.0	 1	    1.07402	   -5.15516	 132.0	 1	    1.10000	    0.90000;
	114	 1	 3.00	 -1.00	 0.0	 0.0	 1	    1.07473	   -5.29408	 33.0	 1	    1.10000	    0.90000;
	115	 1	 0.00	 0.00	 0.0	 0.0	 1	    1.08360	    0.64240	 132.0	 1	    1.10000	    0.90000;
	116	 1	 29.95	 2.11	 0.0	 0.0	 1	    1.08013	    4.23344	 66.0	 1	    1.10000	    0.90000;
	117	 2	 5.99	 1.05	 0.0	 0.0	 1	    1.10000	   13.49642	 6.3	 1	    1.10000	    0.90000;
	118	 1	 0.00	 0.00	 0.0	 0.0	 1	    1.08868	   10.08106	 33.0	 1	    1.10000	    0.90000;
	119	 1	 0.00	 0.00	 0.0	 0.0	 1	    1.06670	  -10.48260	 132.0	 1	    1.10000	    0.90000;
	120	 1	 3.85	 1.12	 0.0	 0.0	 1	    1.06546	  -10.67105	 19.0	 1	    1.10000	    0.90000;
	121	 1	 0.00	 0.00	 0.0	 0.0	 1	    1.06546	  -10.67105	 0.41	 1	    1.10000	    0.90000;
	122	 1	 0.00	 0.00	 0.0	 0.0	 1	    1.06546	  -10.67105	 11.0	 1	    1.10000	    0.90000;
	123	 1	 0.00	 0.00	 0.0	 0.0	 1	    1.08598	  -10.41607	 132.0	 1	    1.10000	    0.90000;
	124	 1	 7.49	 0.92	 0.0	 0.0	 1	    1.08448	  -10.88425	 33.0	 1	    1.10000	    0.90000;
	125	 1	 0.00	 0.00	 0.0	 0.0	 1	    1.09464	  -10.08178	 132.0	 1	    1.10000	    0.90000;
	126	 2	 0.00	 0.00	 0.0	 0.0	 1	    1.10000	   -7.58675	 11.0	 1	    1.10000	    0.90000;
	127	 2	 0.00	 0.00	 0.0	 0.0	 1	    1.10000	  -10.08971	 11.0	 1	    1.10000	    0.90000;
	128	 1	 0.00	 0.00	 0.0	 0.0	 1	    1.10000	   -7.58675	 11.0	 1	    1.10000	    0.90000;
	129	 1	 0.00	 0.00	 0.0	 0.0	 1	    1.10000	  -10.08971	 11.0	 1	    1.10000	    0.90000;
	130	 1	 0.00	 0.00	 0.0	 0.0	 1	    1.08820	  -11.48450	 132.0	 1	    1.10000	    0.90000;
	131	 1	 13.48	 1.47	 0.0	 0.0	 1	    1.08549	  -12.41730	 66.0	 1	    1.10000	    0.90000;
	132	 1	 0.00	 0.00	 0.0	 0.0	 1	    1.06606	  -14.11524	 132.0	 1	    1.10000	    0.90000;
	133	 1	 19.47	 1.00	 0.0	 0.0	 1	    1.06324	  -16.32699	 66.0	 1	    1.10000	    0.90000;
	134	 1	 6.11	 1.78	 0.0	 0.0	 1	    1.06143	  -16.56792	 11.0	 1	    1.10000	    0.90000;
	135	 1	 0.00	 0.00	 0.0	 0.0	 1	    1.06143	  -16.56792	 0.41	 1	    1.10000	    0.90000;
	136	 1	 0.00	 0.00	 0.0	 0.0	 1	    1.06143	  -16.56792	 11.0	 1	    1.10000	    0.90000;
	137	 1	 0.00	 0.00	 0.0	 0.0	 1	    1.06463	  -12.83095	 132.0	 1	    1.10000	    0.90000;
	138	 2	 0.00	 0.00	 0.0	 0.0	 1	    1.05437	  -10.69283	 11.0	 1	    1.10000	    0.90000;
	139	 2	 3.40	 0.99	 0.0	 0.0	 1	    1.05390	  -11.02641	 11.0	 1	    1.10000	    0.90000;
	140	 1	 0.00	 0.00	 0.0	 0.0	 1	    1.05413	  -10.85958	 0.41	 1	    1.10000	    0.90000;
	141	 1	 0.00	 0.00	 0.0	 0.0	 1	    1.05511	  -10.35901	 11.0	 1	    1.10000	    0.90000;
	142	 2	 0.00	 0.00	 0.0	 0.0	 1	    1.05511	  -10.35793	 11.0	 1	    1.10000	    0.90000;
	143	 1	 12.10	 0.50	 0.0	 0.0	 1	    1.03896	  -20.06908	 66.0	 1	    1.10000	    0.90000;
	144	 2	 0.00	 0.00	 0.0	 0.0	 1	    1.04163	  -20.03353	 11.0	 1	    1.10000	    0.90000;
	145	 1	 0.00	 0.00	 0.0	 0.0	 1	    1.03896	  -20.06908	 33.0	 1	    1.10000	    0.90000;
	146	 1	 0.00	 0.00	 0.0	 0.0	 1	    1.04014	  -20.05330	 6.6	 1	    1.10000	    0.90000;
	147	 1	 0.00	 0.00	 0.0	 0.0	 1	    1.03898	  -20.06886	 11.0	 1	    1.10000	    0.90000;
	148	 1	 0.00	 0.00	 0.0	 0.0	 1	    1.04095	  -20.04263	 0.38	 1	    1.10000	    0.90000;
	149	 1	 0.00	 0.00	 0.0	 0.0	 1	    1.03898	  -20.06876	 0.22	 1	    1.10000	    0.90000;
	150	 1	 0.00	 0.00	 0.0	 0.0	 1	    1.04026	  -20.05178	 0.38	 1	    1.10000	    0.90000;
	151	 1	 0.00	 0.00	 0.0	 0.0	 1	    1.04026	  -20.05178	 0.22	 1	    1.10000	    0.90000;
	152	 1	 0.00	 0.00	 0.0	 0.0	 1	    1.04026	  -20.05173	 6.6	 1	    1.10000	    0.90000;
	153	 1	 0.00	 0.00	 0.0	 0.0	 1	    1.04026	  -20.05178	 6.6	 1	    1.10000	    0.90000;
	154	 1	 0.00	 0.00	 0.0	 0.0	 1	    1.04026	  -20.05173	 0.22	 1	    1.10000	    0.90000;
	155	 1	 0.01	 0.01	 0.0	 0.0	 1	    1.07023	  -20.01774	 132.0	 1	    1.10000	    0.90000;
	156	 1	 26.03	 4.40	 0.0	 0.0	 1	    1.06005	  -21.81984	 66.0	 1	    1.10000	    0.90000;
	157	 1	 0.00	 0.00	 0.0	 0.0	 1	    1.06686	  -20.23662	 132.0	 1	    1.10000	    0.90000;
	158	 1	 0.00	 0.00	 0.0	 0.0	 1	    1.06064	  -20.56704	 132.0	 1	    1.10000	    0.90000;
	159	 1	 15.19	 2.70	 0.0	 0.0	 1	    1.04828	  -21.60946	 66.0	 1	    1.10000	    0.90000;
	160	 1	 0.00	 0.00	 0.0	 0.0	 1	    1.04828	  -21.60946	 11.0	 1	    1.10000	    0.90000;
	161	 1	 0.00	 0.00	 0.0	 0.0	 1	    1.07530	  -18.92177	 132.0	 1	    1.10000	    0.90000;
	162	 1	 4.30	 0.40	 0.0	 0.0	 1	    1.07418	  -19.27731	 11.0	 1	    1.10000	    0.90000;
	163	 1	 0.00	 0.00	 0.0	 0.0	 1	    1.07464	  -19.15044	 33.0	 1	    1.10000	    0.90000;
	164	 1	 0.00	 0.00	 0.0	 0.0	 1	    1.07418	  -19.27731	 0.41	 1	    1.10000	    0.90000;
	165	 1	 0.00	 0.00	 0.0	 0.0	 1	    1.07464	  -19.15044	 11.0	 1	    1.10000	    0.90000;
	166	 1	 0.00	 0.00	 0.0	 0.0	 1	    1.08042	  -16.83597	 132.0	 1	    1.10000	    0.90000;
	167	 1	 10.87	 0.40	 0.0	 0.0	 1	    1.07951	  -17.41019	 11.0	 1	    1.10000	    0.90000;
	168	 1	 0.00	 0.00	 0.0	 0.0	 1	    1.07951	  -17.41019	 0.41	 1	    1.10000	    0.90000;
	169	 1	 0.00	 0.00	 0.0	 0.0	 1	    1.07951	  -17.41019	 11.0	 1	    1.10000	    0.90000;
	170	 1	 0.00	 0.00	 0.0	 0.0	 1	    1.10000	  -23.45791	 132.0	 1	    1.10000	    0.90000;
	171	 1	 0.00	 0.00	 0.0	 0.0	 1	    1.07951	  -17.41019	 19.0	 1	    1.10000	    0.90000;
	172	 1	 0.00	 0.00	 0.0	 0.0	 1	    1.09054	  -16.39940	 132.0	 1	    1.10000	    0.90000;
	173	 1	 2.59	 0.20	 0.0	 0.0	 1	    1.09028	  -16.49745	 19.0	 1	    1.10000	    0.90000;
	174	 1	 0.00	 0.00	 0.0	 0.0	 1	    1.09028	  -16.49745	 0.41	 1	    1.10000	    0.90000;
	175	 1	 0.00	 0.00	 0.0	 0.0	 1	    1.09028	  -16.49745	 11.0	 1	    1.10000	    0.90000;
	176	 1	 0.00	 0.00	 0.0	 0.0	 1	    1.07192	  -19.36399	 132.0	 1	    1.10000	    0.90000;
	177	 1	 0.00	 0.00	 0.0	 0.0	 1	    1.07485	  -20.30083	 220.0	 1	    1.10000	    0.90000;
	178	 1	 7.79	 3.00	 0.0	 0.0	 1	    1.07029	  -21.02857	 11.0	 1	    1.10000	    0.90000;
	179	 1	 0.00	 0.00	 0.0	 0.0	 1	    1.07405	  -20.57012	 69.0	 1	    1.10000	    0.90000;
	180	 1	 0.00	 0.00	 0.0	 0.0	 1	    1.07405	  -20.57012	 69.0	 1	    1.10000	    0.90000;
	181	 1	 0.00	 0.00	 0.0	 0.0	 1	    1.07405	  -20.57012	 69.0	 1	    1.10000	    0.90000;
	182	 1	 0.00	 0.00	 0.0	 0.0	 1	    1.07405	  -20.57012	 69.0	 1	    1.10000	    0.90000;
	183	 1	 0.00	 0.00	 0.0	 0.0	 1	    1.07405	  -20.57012	 69.0	 1	    1.10000	    0.90000;
	184	 1	 7.80	 3.00	 0.0	 0.0	 1	    1.07029	  -21.02955	 11.0	 1	    1.10000	    0.90000;
	185	 1	 14.48	 1.60	 0.0	 0.0	 1	    1.00139	  -21.02744	 66.0	 1	    1.10000	    0.90000;
	186	 2	 0.00	 0.00	 0.0	 0.0	 1	    0.99812	  -20.61556	 6.6	 1	    1.10000	    0.90000;
	187	 1	 0.00	 0.00	 0.0	 0.0	 1	    1.00139	  -21.02744	 11.0	 1	    1.10000	    0.90000;
	188	 1	 0.00	 0.00	 0.0	 0.0	 1	    1.07405	  -20.57012	 220.0	 1	    1.10000	    0.90000;
	189	 1	 0.00	 0.00	 0.0	 0.0	 1	    1.07405	  -20.57050	 220.0	 1	    1.10000	    0.90000;
];

%% generator data
%	bus	Pg	Qg	Qmax	Qmin	Vg	mBase	status	Pmax	Pmin	Pc1	Pc2	Qc1min	Qc1max	Qc2min	Qc2max	ramp_agc	ramp_10	ramp_30	ramp_q	apf
mpc.gen = [
	10	 169.0	 37.974	 85.0	 -85.0	 1.1	 69.3	 1	 169	 0.0	 0.0	 0.0	 0.0	 0.0	 0.0	 0.0	 0.0	 0.0	 0.0	 0.0	 0.0; % NG
	2	 155.0	 48.833	 78.0	 -78.0	 1.1	 106.6	 1	 155	 0.0	 0.0	 0.0	 0.0	 0.0	 0.0	 0.0	 0.0	 0.0	 0.0	 0.0	 0.0; % NG
	3	 204.77	 49.248	 147.0	 -147.0	 1.1	 106.6	 1	 294	 0.0	 0.0	 0.0	 0.0	 0.0	 0.0	 0.0	 0.0	 0.0	 0.0	 0.0	 0.0; % NG
	4	 21.795	 48.128	 104.0	 -104.0	 1.1	 53.3	 1	 208	 0.0	 0.0	 0.0	 0.0	 0.0	 0.0	 0.0	 0.0	 0.0	 0.0	 0.0	 0.0; % NG
	8	 0.0	 27.25	 52.0	 -52.0	 1.1	 69.3	 1	 104	 0.0	 0.0	 0.0	 0.0	 0.0	 0.0	 0.0	 0.0	 0.0	 0.0	 0.0	 0.0; % NG
	9	 239.428	 51.955	 139.0	 -139.0	 1.1	 69.3	 1	 277	 0.0	 0.0	 0.0	 0.0	 0.0	 0.0	 0.0	 0.0	 0.0	 0.0	 0.0	 0.0; % COW
	13	 14.706	 25.608	 46.0	 -46.0	 1.1	 81.5	 1	 91	 0.0	 0.0	 0.0	 0.0	 0.0	 0.0	 0.0	 0.0	 0.0	 0.0	 0.0	 0.0; % NG
	14	 0.0	 25.919	 127.0	 -127.0	 1.1	 81.5	 1	 253	 0.0	 0.0	 0.0	 0.0	 0.0	 0.0	 0.0	 0.0	 0.0	 0.0	 0.0	 0.0; % NG
	16	 14.797	 23.0	 23.0	 -23.0	 1.097	 53.3	 1	 46	 0.0	 0.0	 0.0	 0.0	 0.0	 0.0	 0.0	 0.0	 0.0	 0.0	 0.0	 0.0; % NG
	18	 155.0	 49.279	 78.0	 -78.0	 1.1	 66.67	 1	 155	 0.0	 0.0	 0.0	 0.0	 0.0	 0.0	 0.0	 0.0	 0.0	 0.0	 0.0	 0.0; % NG
	19	 103.855	 44.55	 94.0	 -94.0	 1.1	 66.67	 1	 188	 0.0	 0.0	 0.0	 0.0	 0.0	 0.0	 0.0	 0.0	 0.0	 0.0	 0.0	 0.0; % NG
	27	 99.0	 23.375	 50.0	 -50.0	 1.1	 19.4	 1	 99	 0.0	 0.0	 0.0	 0.0	 0.0	 0.0	 0.0	 0.0	 0.0	 0.0	 0.0	 0.0; % NG
	28	 84.0	 23.293	 42.0	 -42.0	 1.1	 19.4	 1	 84	 0.0	 0.0	 0.0	 0.0	 0.0	 0.0	 0.0	 0.0	 0.0	 0.0	 0.0	 0.0; % NG
	29	 26.437	 28.087	 56.0	 -56.0	 1.1	 21.0	 1	 111	 0.0	 0.0	 0.0	 0.0	 0.0	 0.0	 0.0	 0.0	 0.0	 0.0	 0.0	 0.0; % NG
	32	 1.0	 6.0	 6.0	 -7.2	 1.0984	 16.5	 1	 1	 0.0	 0.0	 0.0	 0.0	 0.0	 0.0	 0.0	 0.0	 0.0	 0.0	 0.0	 0.0; % NG
	33	 4.0	 7.404	 9.9	 -7.2	 1.1	 16.5	 1	 4	 0.0	 0.0	 0.0	 0.0	 0.0	 0.0	 0.0	 0.0	 0.0	 0.0	 0.0	 0.0; % NG
	36	 0.0	 28.037	 79.0	 -79.0	 1.1	 18.2	 1	 158	 0.0	 0.0	 0.0	 0.0	 0.0	 0.0	 0.0	 0.0	 0.0	 0.0	 0.0	 0.0; % NG
	42	 171.0	 76.288	 86.0	 -86.0	 1.1	 55.0	 1	 171	 0.0	 0.0	 0.0	 0.0	 0.0	 0.0	 0.0	 0.0	 0.0	 0.0	 0.0	 0.0; % NG
	43	 0.0	 68.65	 122.0	 -122.0	 1.1	 55.0	 1	 243	 0.0	 0.0	 0.0	 0.0	 0.0	 0.0	 0.0	 0.0	 0.0	 0.0	 0.0	 0.0; % PEL
	50	 0.0	 33.039	 92.0	 -92.0	 1.1	 40.0	 1	 184	 0.0	 0.0	 0.0	 0.0	 0.0	 0.0	 0.0	 0.0	 0.0	 0.0	 0.0	 0.0; % NG
	51	 112.999	 29.327	 57.0	 -57.0	 1.1	 40.0	 1	 113	 0.0	 0.0	 0.0	 0.0	 0.0	 0.0	 0.0	 0.0	 0.0	 0.0	 0.0	 0.0; % NG
	52	 0.0	 33.039	 56.0	 -56.0	 1.1	 40.0	 1	 111	 0.0	 0.0	 0.0	 0.0	 0.0	 0.0	 0.0	 0.0	 0.0	 0.0	 0.0	 0.0; % NG
	53	 28.052	 31.343	 34.8	 -34.8	 1.1	 40.0	 1	 46	 0.0	 0.0	 0.0	 0.0	 0.0	 0.0	 0.0	 0.0	 0.0	 0.0	 0.0	 0.0; % NG
	98	 0.0	 17.653	 27.0	 -27.0	 1.1	 55.0	 1	 53	 0.0	 0.0	 0.0	 0.0	 0.0	 0.0	 0.0	 0.0	 0.0	 0.0	 0.0	 0.0; % COW
	99	 62.109	 17.289	 64.0	 -64.0	 1.1	 55.0	 1	 128	 0.0	 0.0	 0.0	 0.0	 0.0	 0.0	 0.0	 0.0	 0.0	 0.0	 0.0	 0.0; % NG
	102	 81.0	 23.033	 41.0	 -41.0	 1.1	 67.5	 1	 81	 0.0	 0.0	 0.0	 0.0	 0.0	 0.0	 0.0	 0.0	 0.0	 0.0	 0.0	 0.0; % NG
	104	 151.123	 66.093	 141.0	 -141.0	 1.1	 10.0	 1	 282	 0.0	 0.0	 0.0	 0.0	 0.0	 0.0	 0.0	 0.0	 0.0	 0.0	 0.0	 0.0; % NG
	117	 96.675	 14.511	 97.0	 -97.0	 1.1	 20.2	 1	 194	 0.0	 0.0	 0.0	 0.0	 0.0	 0.0	 0.0	 0.0	 0.0	 0.0	 0.0	 0.0; % NG
	126	 50.024	 5.282	 42.0	 -42.0	 1.1	 60.0	 1	 84	 0.0	 0.0	 0.0	 0.0	 0.0	 0.0	 0.0	 0.0	 0.0	 0.0	 0.0	 0.0; % NG
	127	 0.0	 5.609	 32.0	 -32.0	 1.1	 60.0	 1	 64	 0.0	 0.0	 0.0	 0.0	 0.0	 0.0	 0.0	 0.0	 0.0	 0.0	 0.0	 0.0; % NG
	138	 37.0	 -8.208	 19.0	 -19.0	 1.05437	 37.5	 1	 37	 0.0	 0.0	 0.0	 0.0	 0.0	 0.0	 0.0	 0.0	 0.0	 0.0	 0.0	 0.0; % NG
	139	 0.0	 -7.008	 28.0	 -28.0	 1.0539	 37.5	 1	 56	 0.0	 0.0	 0.0	 0.0	 0.0	 0.0	 0.0	 0.0	 0.0	 0.0	 0.0	 0.0; % NG
	142	 21.0	 0.039	 13.0	 -13.0	 1.05511	 3.5	 1	 26	 0.0	 0.0	 0.0	 0.0	 0.0	 0.0	 0.0	 0.0	 0.0	 0.0	 0.0	 0.0; % NG
	144	 1.0	 3.167	 11.0	 -6.0	 1.04163	 28.0	 1	 1	 0.0	 0.0	 0.0	 0.0	 0.0	 0.0	 0.0	 0.0	 0.0	 0.0	 0.0	 0.0; % NG
	186	 11.967	 -6.14	 109.0	 -109.0	 0.99812	 10.0	 1	 217	 0.0	 0.0	 0.0	 0.0	 0.0	 0.0	 0.0	 0.0	 0.0	 0.0	 0.0	 0.0; % NG
];

%% generator cost data
%	2	startup	shutdown	n	c(n-1)	...	c0
mpc.gencost = [
	2	 0.0	 0.0	 3	   0.000000	   0.815682	   0.000000; % NG
	2	 0.0	 0.0	 3	   0.000000	   1.052572	   0.000000; % NG
	2	 0.0	 0.0	 3	   0.000000	   1.055994	   0.000000; % NG
	2	 0.0	 0.0	 3	   0.000000	   1.240593	   0.000000; % NG
	2	 0.0	 0.0	 3	   0.000000	   1.182607	   0.000000; % NG
	2	 0.0	 0.0	 3	   0.000000	   0.518158	   0.000000; % COW
	2	 0.0	 0.0	 3	   0.000000	   1.171668	   0.000000; % NG
	2	 0.0	 0.0	 3	   0.000000	   1.247537	   0.000000; % NG
	2	 0.0	 0.0	 3	   0.000000	   1.154006	   0.000000; % NG
	2	 0.0	 0.0	 3	   0.000000	   0.789187	   0.000000; % NG
	2	 0.0	 0.0	 3	   0.000000	   1.152932	   0.000000; % NG
	2	 0.0	 0.0	 3	   0.000000	   0.899707	   0.000000; % NG
	2	 0.0	 0.0	 3	   0.000000	   0.925953	   0.000000; % NG
	2	 0.0	 0.0	 3	   0.000000	   0.986847	   0.000000; % NG
	2	 0.0	 0.0	 3	   0.000000	   0.883370	   0.000000; % NG
	2	 0.0	 0.0	 3	   0.000000	   0.782292	   0.000000; % NG
	2	 0.0	 0.0	 3	   0.000000	   1.078024	   0.000000; % NG
	2	 0.0	 0.0	 3	   0.000000	   0.684358	   0.000000; % NG
	2	 0.0	 0.0	 3	   0.000000	   6.390875	   0.000000; % PEL
	2	 0.0	 0.0	 3	   0.000000	   1.118323	   0.000000; % NG
	2	 0.0	 0.0	 3	   0.000000	   0.995571	   0.000000; % NG
	2	 0.0	 0.0	 3	   0.000000	   1.482794	   0.000000; % NG
	2	 0.0	 0.0	 3	   0.000000	   1.014535	   0.000000; % NG
	2	 0.0	 0.0	 3	   0.000000	   1.248248	   0.000000; % COW
	2	 0.0	 0.0	 3	   0.000000	   1.097237	   0.000000; % NG
	2	 0.0	 0.0	 3	   0.000000	   0.632991	   0.000000; % NG
	2	 0.0	 0.0	 3	   0.000000	   1.179290	   0.000000; % NG
	2	 0.0	 0.0	 3	   0.000000	   0.866080	   0.000000; % NG
	2	 0.0	 0.0	 3	   0.000000	   1.083903	   0.000000; % NG
	2	 0.0	 0.0	 3	   0.000000	   1.634720	   0.000000; % NG
	2	 0.0	 0.0	 3	   0.000000	   1.049514	   0.000000; % NG
	2	 0.0	 0.0	 3	   0.000000	   1.283851	   0.000000; % NG
	2	 0.0	 0.0	 3	   0.000000	   1.146827	   0.000000; % NG
	2	 0.0	 0.0	 3	   0.000000	   0.677066	   0.000000; % NG
	2	 0.0	 0.0	 3	   0.000000	   1.280875	   0.000000; % NG
];

%% branch data
%	fbus	tbus	r	x	b	rateA	rateB	rateC	ratio	angle	status	angmin	angmax
mpc.branch = [
	1	 7	 0.0055	 0.0334	 0.04711	 321.0	 321.0	 321.0	 1.0	 0.0	 1	 -30.0	 30.0;
	1	 17	 0.00059	 0.00818	 0.02064	 476.0	 476.0	 476.0	 1.0	 0.0	 1	 -30.0	 30.0;
	1	 21	 0.00138	 0.00908	 0.0128	 334.0	 334.0	 334.0	 1.0	 0.0	 1	 -30.0	 30.0;
	1	 46	 0.0075	 0.04531	 0.06412	 321.0	 321.0	 321.0	 1.0	 0.0	 1	 -30.0	 30.0;
	1	 71	 0.00607	 0.08107	 0.20636	 389.0	 389.0	 389.0	 1.0	 0.0	 1	 -30.0	 30.0;
	5	 6	 0.0	 0.0001	 0.0	 9900.0	 9900.0	 9900.0	 1.0	 0.0	 1	 -30.0	 30.0;
	5	 23	 0.1134	 0.2371	 0.0034	 58.0	 58.0	 58.0	 1.0	 0.0	 1	 -30.0	 30.0;
	6	 22	 0.1892	 0.4045	 0.0057	 59.0	 59.0	 59.0	 1.0	 0.0	 1	 -30.0	 30.0;
	7	 12	 0.0008	 0.00758	 0.0122	 397.0	 397.0	 397.0	 1.0	 0.0	 1	 -30.0	 30.0;
	7	 15	 0.00118	 0.00525	 0.00734	 277.0	 277.0	 277.0	 1.0	 0.0	 1	 -30.0	 30.0;
	11	 172	 0.0414	 0.186	 0.03803	 166.0	 166.0	 166.0	 1.0	 0.0	 1	 -30.0	 30.0;
	12	 17	 0.00186	 0.01775	 0.02631	 399.0	 399.0	 399.0	 1.0	 0.0	 1	 -30.0	 30.0;
	17	 20	 0.0015	 0.01421	 0.02098	 397.0	 397.0	 397.0	 1.0	 0.0	 1	 -30.0	 30.0;
	17	 76	 0.01123	 0.10655	 0.15787	 295.0	 295.0	 295.0	 1.0	 0.0	 1	 -30.0	 30.0;
	17	 76	 0.00673	 0.0629	 0.22871	 395.0	 395.0	 395.0	 1.0	 0.0	 1	 -30.0	 30.0;
	21	 25	 0.00702	 0.04602	 0.06492	 333.0	 333.0	 333.0	 1.0	 0.0	 1	 -30.0	 30.0;
	22	 24	 0.09229	 0.11961	 0.00156	 47.0	 47.0	 47.0	 1.0	 0.0	 1	 -30.0	 30.0;
	23	 24	 0.12833	 0.28719	 0.00422	 60.0	 60.0	 60.0	 1.0	 0.0	 1	 -30.0	 30.0;
	24	 44	 0.1	 0.15	 0.002	 50.0	 50.0	 50.0	 1.0	 0.0	 1	 -30.0	 30.0;
	25	 57	 0.005	 0.0328	 0.0456	 333.0	 333.0	 333.0	 1.0	 0.0	 1	 -30.0	 30.0;
	26	 40	 0.02416	 0.06049	 0.01107	 127.0	 127.0	 127.0	 1.0	 0.0	 1	 -30.0	 30.0;
	30	 35	 0.006	 0.015	 0.0	 64.0	 64.0	 64.0	 1.0	 0.0	 1	 -30.0	 30.0;
	31	 35	 0.0239	 0.0599	 0.0007	 64.0	 64.0	 64.0	 1.0	 0.0	 1	 -30.0	 30.0;
	35	 38	 0.0	 0.0001	 0.0	 9900.0	 9900.0	 9900.0	 1.0	 0.0	 1	 -30.0	 30.0;
	35	 44	 0.0615	 0.1591	 0.0024	 65.0	 65.0	 65.0	 1.0	 0.0	 1	 -30.0	 30.0;
	35	 54	 0.0399	 0.1001	 0.0011	 64.0	 64.0	 64.0	 1.0	 0.0	 1	 -30.0	 30.0;
	39	 41	 0.00023	 0.00222	 0.00329	 401.0	 401.0	 401.0	 1.0	 0.0	 1	 -30.0	 30.0;
	39	 48	 0.00019	 0.00178	 0.00263	 395.0	 395.0	 395.0	 1.0	 0.0	 1	 -30.0	 30.0;
	39	 57	 0.00187	 0.01776	 0.02631	 398.0	 398.0	 398.0	 1.0	 0.0	 1	 -30.0	 30.0;
	40	 47	 0.00055	 0.00324	 0.00018	 190.0	 190.0	 190.0	 1.0	 0.0	 1	 -30.0	 30.0;
	41	 46	 0.0054	 0.03262	 0.04616	 321.0	 321.0	 321.0	 1.0	 0.0	 1	 -30.0	 30.0;
	41	 57	 0.00255	 0.01541	 0.0218	 321.0	 321.0	 321.0	 1.0	 0.0	 1	 -30.0	 30.0;
	41	 75	 0.0009	 0.00852	 0.01259	 397.0	 397.0	 397.0	 1.0	 0.0	 1	 -30.0	 30.0;
	49	 55	 0.00068	 0.00191	 0.02173	 134.0	 134.0	 134.0	 1.0	 0.0	 1	 -30.0	 30.0;
	49	 58	 0.00677	 0.01915	 0.19623	 134.0	 134.0	 134.0	 1.0	 0.0	 1	 -30.0	 30.0;
	55	 56	 0.0083	 0.03772	 0.00758	 168.0	 168.0	 168.0	 1.0	 0.0	 1	 -30.0	 30.0;
	56	 69	 0.00352	 0.00996	 0.10204	 134.0	 134.0	 134.0	 1.0	 0.0	 1	 -30.0	 30.0;
	57	 71	 0.00208	 0.01308	 0.01975	 327.0	 327.0	 327.0	 1.0	 0.0	 1	 -30.0	 30.0;
	57	 71	 0.00208	 0.01308	 0.01975	 327.0	 327.0	 327.0	 1.0	 0.0	 1	 -30.0	 30.0;
	57	 76	 0.0088	 0.0534	 0.076	 321.0	 321.0	 321.0	 1.0	 0.0	 1	 -30.0	 30.0;
	58	 59	 0.0038	 0.0084	 0.0219	 119.0	 119.0	 119.0	 1.0	 0.0	 1	 -30.0	 30.0;
	58	 69	 0.0046	 0.017	 0.0033	 152.0	 152.0	 152.0	 1.0	 0.0	 1	 -30.0	 30.0;
	59	 82	 0.0005	 0.0023	 0.0325	 169.0	 169.0	 169.0	 1.0	 0.0	 1	 -30.0	 30.0;
	61	 71	 0.00041	 0.00262	 0.0046	 329.0	 329.0	 329.0	 1.0	 0.0	 1	 -30.0	 30.0;
	62	 71	 0.00041	 0.00262	 0.0046	 329.0	 329.0	 329.0	 1.0	 0.0	 1	 -30.0	 30.0;
	64	 71	 0.00041	 0.00262	 0.0046	 329.0	 329.0	 329.0	 1.0	 0.0	 1	 -30.0	 30.0;
	66	 71	 0.00041	 0.00262	 0.0046	 329.0	 329.0	 329.0	 1.0	 0.0	 1	 -30.0	 30.0;
	69	 84	 0.0032	 0.0057	 0.1054	 108.0	 108.0	 108.0	 1.0	 0.0	 1	 -30.0	 30.0;
	71	 75	 0.0022	 0.0212	 0.0321	 400.0	 400.0	 400.0	 1.0	 0.0	 1	 -30.0	 30.0;
	72	 73	 0.0011	 0.0046	 0.001	 162.0	 162.0	 162.0	 1.0	 0.0	 1	 -30.0	 30.0;
	72	 92	 0.00465	 0.01776	 0.00547	 155.0	 155.0	 155.0	 1.0	 0.0	 1	 -30.0	 30.0;
	72	 93	 0.0253	 0.101	 0.0219	 158.0	 158.0	 158.0	 1.0	 0.0	 1	 -30.0	 30.0;
	76	 80	 0.0007	 0.004	 0.0061	 312.0	 312.0	 312.0	 1.0	 0.0	 1	 -30.0	 30.0;
	76	 81	 0.0004	 0.00377	 0.00557	 396.0	 396.0	 396.0	 1.0	 0.0	 1	 -30.0	 30.0;
	76	 81	 0.00039	 0.0037	 0.00547	 397.0	 397.0	 397.0	 1.0	 0.0	 1	 -30.0	 30.0;
	77	 103	 0.0106	 0.0476	 0.00985	 167.0	 167.0	 167.0	 1.0	 0.0	 1	 -30.0	 30.0;
	82	 86	 0.00196	 0.00418	 0.04905	 117.0	 117.0	 117.0	 1.0	 0.0	 1	 -30.0	 30.0;
	88	 90	 0.00402	 0.00674	 0.10825	 105.0	 105.0	 105.0	 1.0	 0.0	 1	 -30.0	 30.0;
	90	 92	 0.0001	 0.00042	 0.00591	 162.0	 162.0	 162.0	 1.0	 0.0	 1	 -30.0	 30.0;
	93	 96	 0.00354	 0.0214	 0.00392	 193.0	 193.0	 193.0	 1.0	 0.0	 1	 -30.0	 30.0;
	94	 96	 0.0029	 0.01159	 0.00251	 158.0	 158.0	 158.0	 1.0	 0.0	 1	 -30.0	 30.0;
	96	 97	 0.00583	 0.03524	 0.00646	 193.0	 193.0	 193.0	 1.0	 0.0	 1	 -30.0	 30.0;
	103	 119	 0.0409	 0.1829	 0.03775	 167.0	 167.0	 167.0	 1.0	 0.0	 1	 -30.0	 30.0;
	109	 113	 0.0248	 0.1112	 0.0227	 167.0	 167.0	 167.0	 1.0	 0.0	 1	 -30.0	 30.0;
	109	 119	 0.0178	 0.08	 0.01636	 167.0	 167.0	 167.0	 1.0	 0.0	 1	 -30.0	 30.0;
	113	 115	 0.0429	 0.1927	 0.03945	 161.0	 161.0	 161.0	 1.0	 0.0	 1	 -30.0	 30.0;
	119	 123	 0.0385	 0.1727	 0.0356	 167.0	 167.0	 167.0	 1.0	 0.0	 1	 -30.0	 30.0;
	123	 125	 0.018	 0.0797	 0.0159	 166.0	 166.0	 166.0	 1.0	 0.0	 1	 -30.0	 30.0;
	125	 130	 0.0169	 0.075	 0.0153	 166.0	 166.0	 166.0	 1.0	 0.0	 1	 -30.0	 30.0;
	130	 132	 0.0839	 0.2156	 0.0427	 128.0	 128.0	 128.0	 1.0	 0.0	 1	 -30.0	 30.0;
	132	 137	 0.0435	 0.1952	 0.04	 158.0	 158.0	 158.0	 1.0	 0.0	 1	 -30.0	 30.0;
	133	 143	 0.35284	 0.5564	 0.005	 48.0	 48.0	 48.0	 1.0	 0.0	 1	 -30.0	 30.0;
	137	 176	 0.06485	 0.29293	 0.06014	 106.0	 106.0	 106.0	 1.0	 0.0	 1	 -30.0	 30.0;
	141	 142	 0.0	 0.0001	 0.0	 9900.0	 9900.0	 9900.0	 1.0	 0.0	 1	 -30.0	 30.0;
	155	 157	 0.01419	 0.01638	 0.10193	 88.0	 88.0	 88.0	 1.0	 0.0	 1	 -30.0	 30.0;
	155	 158	 0.01663	 0.07017	 0.01485	 162.0	 162.0	 162.0	 1.0	 0.0	 1	 -30.0	 30.0;
	155	 161	 0.0264	 0.11823	 0.0242	 167.0	 167.0	 167.0	 1.0	 0.0	 1	 -30.0	 30.0;
	155	 176	 0.01322	 0.04968	 0.08516	 154.0	 154.0	 154.0	 1.0	 0.0	 1	 -30.0	 30.0;
	159	 185	 0.30532	 0.5096	 0.003	 52.0	 52.0	 52.0	 1.0	 0.0	 1	 -30.0	 30.0;
	161	 166	 0.0399	 0.1791	 0.0367	 167.0	 167.0	 167.0	 1.0	 0.0	 1	 -30.0	 30.0;
	166	 170	 0.0	 -0.40174	 0.0	 79.0	 79.0	 79.0	 1.0	 0.0	 1	 -30.0	 30.0;
	170	 172	 0.0883	 0.4	 0.0838	 78.0	 78.0	 78.0	 1.0	 0.0	 1	 -30.0	 30.0;
	177	 188	 0.00219	 0.03499	 0.0818	 510.0	 510.0	 510.0	 1.0	 0.0	 1	 -30.0	 30.0;
	188	 189	 0.0	 0.0001	 0.0	 9900.0	 9900.0	 9900.0	 1.0	 0.0	 1	 -30.0	 30.0;
	1	 2	 0.00481	 0.14783	 0.0	 214.0	 214.0	 214.0	 1.0	 0.0	 1	 -30.0	 30.0;
	1	 3	 0.00481	 0.14783	 0.0	 214.0	 214.0	 214.0	 1.0	 0.0	 1	 -30.0	 30.0;
	1	 4	 0.00292	 0.113	 0.0	 280.0	 280.0	 280.0	 1.0	 0.0	 1	 -30.0	 30.0;
	5	 2	 0.01616	 0.101	 0.0	 309.0	 309.0	 309.0	 1.0	 0.0	 1	 -30.0	 30.0;
	6	 3	 0.01616	 0.101	 0.0	 309.0	 309.0	 309.0	 1.0	 0.0	 1	 -30.0	 30.0;
	7	 8	 0.00373	 0.129	 0.0	 245.0	 245.0	 245.0	 1.0	 0.0	 1	 -30.0	 30.0;
	7	 9	 0.00373	 0.129	 0.0	 245.0	 245.0	 245.0	 1.0	 0.0	 1	 -30.0	 30.0;
	7	 10	 0.00373	 0.129	 0.0	 245.0	 245.0	 245.0	 1.0	 0.0	 1	 -30.0	 30.0;
	7	 11	 0.002	 0.1081	 0.0	 293.0	 293.0	 293.0	 1.0	 0.0	 1	 -30.0	 30.0;
	12	 13	 0.00444	 0.15	 0.0	 211.0	 211.0	 211.0	 1.0	 0.0	 1	 -30.0	 30.0;
	12	 14	 0.00444	 0.15	 0.0	 211.0	 211.0	 211.0	 1.0	 0.0	 1	 -30.0	 30.0;
	15	 16	 0.0064	 0.1285	 0.0	 246.0	 246.0	 246.0	 1.0	 0.0	 1	 -30.0	 30.0;
	17	 18	 0.00637	 0.12825	 0.0	 246.0	 246.0	 246.0	 1.0	 0.0	 1	 -30.0	 30.0;
	17	 19	 0.00637	 0.12825	 0.0	 246.0	 246.0	 246.0	 1.0	 0.0	 1	 -30.0	 30.0;
	25	 26	 0.00258	 0.126	 0.0	 251.0	 251.0	 251.0	 1.0	 0.0	 1	 -30.0	 30.0;
	26	 27	 0.00823	 0.1094	 0.0	 288.0	 288.0	 288.0	 1.0	 0.0	 1	 -30.0	 30.0;
	26	 28	 0.0081	 0.1098	 0.0	 287.0	 287.0	 287.0	 1.0	 0.0	 1	 -30.0	 30.0;
	26	 29	 0.00519	 0.099	 0.0	 319.0	 319.0	 319.0	 1.0	 0.0	 1	 -30.0	 30.0;
	26	 30	 0.00583	 0.1167	 0.0	 271.0	 271.0	 271.0	 1.0	 0.0	 1	 -30.0	 30.0;
	31	 32	 0.0035	 0.119	 0.0	 266.0	 266.0	 266.0	 1.0	 0.0	 1	 -30.0	 30.0;
	31	 33	 0.0035	 0.119	 0.0	 266.0	 266.0	 266.0	 1.0	 0.0	 1	 -30.0	 30.0;
	31	 34	 0.00049	 0.11797	 0.0	 268.0	 268.0	 268.0	 1.0	 0.0	 1	 -30.0	 30.0;
	35	 36	 0.00425	 0.0649	 0.0	 486.0	 486.0	 486.0	 1.0	 0.0	 1	 -30.0	 30.0;
	35	 37	 0.16	 1.6	 0.0	 20.0	 20.0	 20.0	 1.0	 0.0	 1	 -30.0	 30.0;
	39	 40	 0.0011	 0.0525	 0.0	 602.0	 602.0	 602.0	 1.0	 0.0	 1	 -30.0	 30.0;
	41	 42	 0.0064	 0.1285	 0.0	 246.0	 246.0	 246.0	 1.0	 0.0	 1	 -30.0	 30.0;
	41	 43	 0.0064	 0.1285	 0.0	 246.0	 246.0	 246.0	 1.0	 0.0	 1	 -30.0	 30.0;
	44	 45	 0.05	 0.1	 0.0	 283.0	 283.0	 283.0	 1.0	 0.0	 1	 -30.0	 30.0;
	49	 50	 0.00522	 0.07661	 0.0	 412.0	 412.0	 412.0	 1.0	 0.0	 1	 -30.0	 30.0;
	49	 51	 0.00522	 0.07661	 0.0	 412.0	 412.0	 412.0	 1.0	 0.0	 1	 -30.0	 30.0;
	49	 52	 0.00522	 0.07661	 0.0	 412.0	 412.0	 412.0	 1.0	 0.0	 1	 -30.0	 30.0;
	49	 53	 0.00522	 0.07661	 0.0	 412.0	 412.0	 412.0	 1.0	 0.0	 1	 -30.0	 30.0;
	57	 58	 0.0011	 0.0427	 0.0	 740.0	 740.0	 740.0	 1.0	 0.0	 1	 -30.0	 30.0;
	61	 60	 0.002	 0.0515	 0.0	 613.0	 613.0	 613.0	 1.0	 0.0	 1	 -30.0	 30.0;
	62	 63	 0.00256	 0.12	 0.0	 264.0	 264.0	 264.0	 1.0	 0.0	 1	 -30.0	 30.0;
	64	 65	 0.00256	 0.12	 0.0	 264.0	 264.0	 264.0	 1.0	 0.0	 1	 -30.0	 30.0;
	66	 67	 0.00256	 0.12	 0.0	 264.0	 264.0	 264.0	 1.0	 0.0	 1	 -30.0	 30.0;
	66	 68	 0.00256	 0.12	 0.0	 264.0	 264.0	 264.0	 1.0	 0.0	 1	 -30.0	 30.0;
	69	 70	 0.0027	 0.06	 0.0	 526.0	 526.0	 526.0	 1.0	 0.0	 1	 -30.0	 30.0;
	71	 72	 0.0011	 0.06	 0.0	 527.0	 527.0	 527.0	 1.0	 0.0	 1	 -30.0	 30.0;
	73	 74	 0.01	 0.1	 0.0	 315.0	 315.0	 315.0	 1.0	 0.0	 1	 -30.0	 30.0;
	76	 77	 0.0018	 0.0608	 0.0	 520.0	 520.0	 520.0	 1.0	 0.0	 1	 -30.0	 30.0;
	77	 78	 0.00378	 0.0806	 0.0	 392.0	 392.0	 392.0	 1.0	 0.0	 1	 -30.0	 30.0;
	78	 79	 0.015	 0.27	 0.0	 117.0	 117.0	 117.0	 1.0	 0.0	 1	 -30.0	 30.0;
	82	 83	 0.0015	 0.0031	 0.0	 9173.0	 9173.0	 9173.0	 1.0	 0.0	 1	 -30.0	 30.0;
	85	 84	 0.003	 0.06	 0.0	 526.0	 526.0	 526.0	 1.0	 0.0	 1	 -30.0	 30.0;
	87	 86	 0.003	 0.06	 0.0	 526.0	 526.0	 526.0	 1.0	 0.0	 1	 -30.0	 30.0;
	89	 88	 0.0036	 0.072	 0.0	 439.0	 439.0	 439.0	 1.0	 0.0	 1	 -30.0	 30.0;
	91	 90	 0.0036	 0.072	 0.0	 439.0	 439.0	 439.0	 1.0	 0.0	 1	 -30.0	 30.0;
	94	 95	 0.00615	 0.12	 0.0	 263.0	 263.0	 263.0	 1.0	 0.0	 1	 -30.0	 30.0;
	94	 102	 0.00615	 0.12	 0.0	 263.0	 263.0	 263.0	 1.0	 0.0	 1	 -30.0	 30.0;
	97	 98	 0.00282	 0.09414	 0.0	 336.0	 336.0	 336.0	 1.0	 0.0	 1	 -30.0	 30.0;
	97	 99	 0.00282	 0.09414	 0.0	 336.0	 336.0	 336.0	 1.0	 0.0	 1	 -30.0	 30.0;
	97	 100	 0.0042	 0.14004	 0.0	 226.0	 226.0	 226.0	 1.0	 0.0	 1	 -30.0	 30.0;
	97	 101	 0.0042	 0.14004	 0.0	 226.0	 226.0	 226.0	 1.0	 0.0	 1	 -30.0	 30.0;
	103	 104	 0.00347	 0.115	 0.0	 275.0	 275.0	 275.0	 1.0	 0.0	 1	 -30.0	 30.0;
	104	 105	 0.006	 0.06	 0.0	 524.0	 524.0	 524.0	 1.0	 0.0	 1	 -30.0	 30.0;
	104	 107	 0.0044	 0.072	 0.0	 438.0	 438.0	 438.0	 1.0	 0.0	 1	 -30.0	 30.0;
	105	 106	 0.0045	 0.045	 0.0	 699.0	 699.0	 699.0	 1.0	 0.0	 1	 -30.0	 30.0;
	105	 108	 0.0044	 0.072	 0.0	 438.0	 438.0	 438.0	 1.0	 0.0	 1	 -30.0	 30.0;
	109	 110	 0.00635	 0.0987	 0.0	 320.0	 320.0	 320.0	 1.0	 0.0	 1	 -30.0	 30.0;
	110	 111	 0.0045	 0.045	 0.0	 699.0	 699.0	 699.0	 1.0	 0.0	 1	 -30.0	 30.0;
	110	 112	 0.0044	 0.072	 0.0	 438.0	 438.0	 438.0	 1.0	 0.0	 1	 -30.0	 30.0;
	113	 114	 0.00477	 0.0917	 0.0	 344.0	 344.0	 344.0	 1.0	 0.0	 1	 -30.0	 30.0;
	115	 116	 0.00447	 0.1218	 0.0	 260.0	 260.0	 260.0	 1.0	 0.0	 1	 -30.0	 30.0;
	116	 118	 0.00536	 0.13302	 0.0	 238.0	 238.0	 238.0	 1.0	 0.0	 1	 -30.0	 30.0;
	117	 118	 0.00431	 0.07931	 0.0	 398.0	 398.0	 398.0	 1.0	 0.0	 1	 -30.0	 30.0;
	119	 120	 0.00552	 0.0987	 0.0	 320.0	 320.0	 320.0	 1.0	 0.0	 1	 -30.0	 30.0;
	120	 121	 0.004	 0.04	 0.0	 786.0	 786.0	 786.0	 1.0	 0.0	 1	 -30.0	 30.0;
	120	 122	 0.0044	 0.072	 0.0	 438.0	 438.0	 438.0	 1.0	 0.0	 1	 -30.0	 30.0;
	123	 124	 0.00535	 0.12914	 0.0	 245.0	 245.0	 245.0	 1.0	 0.0	 1	 -30.0	 30.0;
	125	 126	 0.00297	 0.1051	 0.0	 301.0	 301.0	 301.0	 1.0	 0.0	 1	 -30.0	 30.0;
	125	 127	 0.00297	 0.1051	 0.0	 301.0	 301.0	 301.0	 1.0	 0.0	 1	 -30.0	 30.0;
	126	 128	 0.0006	 0.06	 0.0	 62.0	 62.0	 62.0	 1.0	 0.0	 1	 -30.0	 30.0;
	127	 129	 0.0006	 0.06	 0.0	 62.0	 62.0	 62.0	 1.0	 0.0	 1	 -30.0	 30.0;
	130	 131	 0.00499	 0.1432	 0.0	 221.0	 221.0	 221.0	 1.0	 0.0	 1	 -30.0	 30.0;
	132	 133	 0.00492	 0.1179	 0.0	 268.0	 268.0	 268.0	 1.0	 0.0	 1	 -30.0	 30.0;
	133	 134	 0.008	 0.08	 0.0	 393.0	 393.0	 393.0	 1.0	 0.0	 1	 -30.0	 30.0;
	134	 135	 0.006	 0.06	 0.0	 524.0	 524.0	 524.0	 1.0	 0.0	 1	 -30.0	 30.0;
	134	 136	 0.00011	 0.0018	 0.0	 26.0	 26.0	 26.0	 1.0	 0.0	 1	 -30.0	 30.0;
	137	 138	 0.0042	 0.14004	 0.0	 226.0	 226.0	 226.0	 1.0	 0.0	 1	 -30.0	 30.0;
	137	 139	 0.0042	 0.14044	 0.0	 225.0	 225.0	 225.0	 1.0	 0.0	 1	 -30.0	 30.0;
	138	 140	 0.0044	 0.044	 0.0	 715.0	 715.0	 715.0	 1.0	 0.0	 1	 -30.0	 30.0;
	139	 140	 0.0044	 0.044	 0.0	 715.0	 715.0	 715.0	 1.0	 0.0	 1	 -30.0	 30.0;
	139	 141	 0.00629	 0.06169	 0.0	 21.0	 21.0	 21.0	 1.0	 0.0	 1	 -30.0	 30.0;
	143	 144	 0.00694	 0.13939	 0.0	 227.0	 227.0	 227.0	 1.0	 0.0	 1	 -30.0	 30.0;
	143	 145	 0.0042	 0.0843	 0.0	 375.0	 375.0	 375.0	 1.0	 0.0	 1	 -30.0	 30.0;
	143	 146	 0.01002	 0.10017	 0.0	 314.0	 314.0	 314.0	 1.0	 0.0	 1	 -30.0	 30.0;
	143	 147	 0.012	 0.12	 0.0	 262.0	 262.0	 262.0	 1.0	 0.0	 1	 -30.0	 30.0;
	144	 148	 0.00573	 0.0573	 0.0	 549.0	 549.0	 549.0	 1.0	 0.0	 1	 -30.0	 30.0;
	146	 152	 0.001	 0.01	 0.0	 13.0	 13.0	 13.0	 1.0	 0.0	 1	 -30.0	 30.0;
	147	 149	 0.00573	 0.0573	 0.0	 549.0	 549.0	 549.0	 1.0	 0.0	 1	 -30.0	 30.0;
	148	 152	 0.00573	 0.0573	 0.0	 549.0	 549.0	 549.0	 1.0	 0.0	 1	 -30.0	 30.0;
	149	 153	 0.96	 9.55	 0.0	 4.0	 4.0	 4.0	 1.0	 0.0	 1	 -30.0	 30.0;
	150	 153	 2.667	 26.67	 0.0	 2.0	 2.0	 2.0	 1.0	 0.0	 1	 -30.0	 30.0;
	151	 153	 2.667	 26.67	 0.0	 2.0	 2.0	 2.0	 1.0	 0.0	 1	 -30.0	 30.0;
	152	 153	 0.00288	 0.02865	 0.0	 13.0	 13.0	 13.0	 1.0	 0.0	 1	 -30.0	 30.0;
	152	 154	 2.667	 26.67	 0.0	 2.0	 2.0	 2.0	 1.0	 0.0	 1	 -30.0	 30.0;
	157	 156	 0.00563	 0.12099	 0.0	 261.0	 261.0	 261.0	 1.0	 0.0	 1	 -30.0	 30.0;
	158	 159	 0.00347	 0.115	 0.0	 275.0	 275.0	 275.0	 1.0	 0.0	 1	 -30.0	 30.0;
	159	 160	 0.00011	 0.0018	 0.0	 9900.0	 9900.0	 9900.0	 1.0	 0.0	 1	 -30.0	 30.0;
	161	 163	 0.006	 0.1078	 0.0	 293.0	 293.0	 293.0	 1.0	 0.0	 1	 -30.0	 30.0;
	163	 162	 0.006	 0.06	 0.0	 524.0	 524.0	 524.0	 1.0	 0.0	 1	 -30.0	 30.0;
	162	 164	 0.0044	 0.044	 0.0	 715.0	 715.0	 715.0	 1.0	 0.0	 1	 -30.0	 30.0;
	163	 165	 0.0044	 0.072	 0.0	 438.0	 438.0	 438.0	 1.0	 0.0	 1	 -30.0	 30.0;
	166	 167	 0.00454	 0.1077	 0.0	 294.0	 294.0	 294.0	 1.0	 0.0	 1	 -30.0	 30.0;
	167	 168	 0.0044	 0.044	 0.0	 715.0	 715.0	 715.0	 1.0	 0.0	 1	 -30.0	 30.0;
	167	 169	 0.0044	 0.072	 0.0	 26.0	 26.0	 26.0	 1.0	 0.0	 1	 -30.0	 30.0;
	167	 171	 0.0063	 0.0693	 0.0	 454.0	 454.0	 454.0	 1.0	 0.0	 1	 -30.0	 30.0;
	172	 173	 0.00508	 0.07896	 0.0	 400.0	 400.0	 400.0	 1.0	 0.0	 1	 -30.0	 30.0;
	173	 174	 0.0045	 0.045	 0.0	 699.0	 699.0	 699.0	 1.0	 0.0	 1	 -30.0	 30.0;
	173	 175	 0.0044	 0.072	 0.0	 438.0	 438.0	 438.0	 1.0	 0.0	 1	 -30.0	 30.0;
	177	 176	 0.00363	 0.12	 0.0	 264.0	 264.0	 264.0	 1.0	 0.0	 1	 -30.0	 30.0;
	188	 178	 0.005	 0.12	 0.0	 263.0	 263.0	 263.0	 1.0	 0.0	 1	 -30.0	 30.0;
	188	 179	 0.00501	 0.12	 0.0	 263.0	 263.0	 263.0	 1.0	 0.0	 1	 -30.0	 30.0;
	188	 180	 0.00501	 0.12	 0.0	 263.0	 263.0	 263.0	 1.0	 0.0	 1	 -30.0	 30.0;
...
];

% INFO    : === Translation Options ===
% INFO    : Load Model:                  from file ./nesta_case189_edin.m.api.sol
% INFO    : Gen Active Capacity Model:   stat
% INFO    : Gen Reactive Capacity Model: al50ag
% INFO    : Gen Active Cost Model:       stat
% INFO    : 
% INFO    : === Load Replacement Notes ===
% INFO    : Bus 1	: Pd=0.0, Qd=0.0 -> Pd=0.00, Qd=0.00
% INFO    : Bus 2	: Pd=0.59, Qd=0.26 -> Pd=0.88, Qd=0.26
% INFO    : Bus 3	: Pd=3.52, Qd=1.53 -> Pd=5.27, Qd=1.53
% INFO    : Bus 4	: Pd=0.0, Qd=0.0 -> Pd=0.00, Qd=0.00
% INFO    : Bus 5	: Pd=0.0, Qd=0.0 -> Pd=0.00, Qd=0.00
% INFO    : Bus 6	: Pd=0.0, Qd=0.0 -> Pd=0.00, Qd=0.00
% INFO    : Bus 7	: Pd=0.0, Qd=0.0 -> Pd=0.00, Qd=0.00
% INFO    : Bus 8	: Pd=0.0, Qd=0.0 -> Pd=0.00, Qd=0.00
% INFO    : Bus 9	: Pd=0.0, Qd=0.0 -> Pd=0.00, Qd=0.00
% INFO    : Bus 10	: Pd=0.0, Qd=0.0 -> Pd=0.00, Qd=0.00
% INFO    : Bus 11	: Pd=0.0, Qd=0.0 -> Pd=0.00, Qd=0.00
% INFO    : Bus 12	: Pd=0.0, Qd=0.0 -> Pd=0.00, Qd=0.00
% INFO    : Bus 13	: Pd=0.0, Qd=0.0 -> Pd=0.00, Qd=0.00
% INFO    : Bus 14	: Pd=0.0, Qd=0.0 -> Pd=0.00, Qd=0.00
% INFO    : Bus 15	: Pd=0.0, Qd=0.0 -> Pd=0.00, Qd=0.00
% INFO    : Bus 16	: Pd=0.0, Qd=0.0 -> Pd=0.00, Qd=0.00
% INFO    : Bus 17	: Pd=0.0, Qd=0.0 -> Pd=0.00, Qd=0.00
% INFO    : Bus 18	: Pd=0.0, Qd=0.0 -> Pd=0.00, Qd=0.00
% INFO    : Bus 19	: Pd=0.0, Qd=0.0 -> Pd=0.00, Qd=0.00
% INFO    : Bus 20	: Pd=0.0, Qd=0.0 -> Pd=0.00, Qd=0.00
% INFO    : Bus 21	: Pd=0.0, Qd=0.0 -> Pd=0.00, Qd=0.00
% INFO    : Bus 22	: Pd=7.33, Qd=7.1 -> Pd=10.98, Qd=7.10
% INFO    : Bus 23	: Pd=2.84, Qd=1.89 -> Pd=4.25, Qd=1.89
% INFO    : Bus 24	: Pd=5.61, Qd=4.73 -> Pd=8.40, Qd=4.73
% INFO    : Bus 25	: Pd=0.0, Qd=0.0 -> Pd=0.00, Qd=0.00
% INFO    : Bus 26	: Pd=0.0, Qd=0.0 -> Pd=0.00, Qd=0.00
% INFO    : Bus 27	: Pd=0.0, Qd=0.0 -> Pd=0.00, Qd=0.00
% INFO    : Bus 28	: Pd=0.0, Qd=0.0 -> Pd=0.00, Qd=0.00
% INFO    : Bus 29	: Pd=0.0, Qd=0.0 -> Pd=0.00, Qd=0.00
% INFO    : Bus 30	: Pd=0.0, Qd=0.0 -> Pd=0.00, Qd=0.00
% INFO    : Bus 31	: Pd=0.0, Qd=0.0 -> Pd=0.00, Qd=0.00
% INFO    : Bus 32	: Pd=0.0, Qd=0.0 -> Pd=0.00, Qd=0.00
% INFO    : Bus 33	: Pd=0.0, Qd=0.0 -> Pd=0.00, Qd=0.00
% INFO    : Bus 34	: Pd=0.0, Qd=0.0 -> Pd=0.00, Qd=0.00
% INFO    : Bus 35	: Pd=0.0, Qd=0.0 -> Pd=0.00, Qd=0.00
% INFO    : Bus 36	: Pd=0.0, Qd=0.0 -> Pd=0.00, Qd=0.00
% INFO    : Bus 37	: Pd=2.83, Qd=1.23 -> Pd=4.24, Qd=1.23
% INFO    : Bus 38	: Pd=5.85, Qd=3.53 -> Pd=8.76, Qd=3.53
% INFO    : Bus 39	: Pd=0.0, Qd=0.0 -> Pd=0.00, Qd=0.00
% INFO    : Bus 40	: Pd=0.0, Qd=0.0 -> Pd=0.00, Qd=0.00
% INFO    : Bus 41	: Pd=0.0, Qd=0.0 -> Pd=0.00, Qd=0.00
% INFO    : Bus 42	: Pd=0.0, Qd=0.0 -> Pd=0.00, Qd=0.00
% INFO    : Bus 43	: Pd=0.0, Qd=0.0 -> Pd=0.00, Qd=0.00
% INFO    : Bus 44	: Pd=8.26, Qd=5.12 -> Pd=12.37, Qd=5.12
% INFO    : Bus 45	: Pd=4.01, Qd=2.73 -> Pd=6.01, Qd=2.73
% INFO    : Bus 46	: Pd=0.0, Qd=0.0 -> Pd=0.00, Qd=0.00
% INFO    : Bus 47	: Pd=0.0, Qd=0.0 -> Pd=0.00, Qd=0.00
% INFO    : Bus 48	: Pd=0.0, Qd=0.0 -> Pd=0.00, Qd=0.00
% INFO    : Bus 49	: Pd=7.55, Qd=2.5 -> Pd=11.31, Qd=2.50
% INFO    : Bus 50	: Pd=0.0, Qd=0.0 -> Pd=0.00, Qd=0.00
% INFO    : Bus 51	: Pd=0.0, Qd=0.0 -> Pd=0.00, Qd=0.00
% INFO    : Bus 52	: Pd=0.0, Qd=0.0 -> Pd=0.00, Qd=0.00
% INFO    : Bus 53	: Pd=0.0, Qd=0.0 -> Pd=0.00, Qd=0.00
% INFO    : Bus 54	: Pd=6.23, Qd=2.05 -> Pd=9.33, Qd=2.05
% INFO    : Bus 55	: Pd=0.0, Qd=0.0 -> Pd=0.00, Qd=0.00
% INFO    : Bus 56	: Pd=0.0, Qd=0.0 -> Pd=0.00, Qd=0.00
% INFO    : Bus 57	: Pd=0.0, Qd=0.0 -> Pd=0.00, Qd=0.00
% INFO    : Bus 58	: Pd=0.0, Qd=0.0 -> Pd=0.00, Qd=0.00
% INFO    : Bus 59	: Pd=0.0, Qd=0.0 -> Pd=0.00, Qd=0.00
% INFO    : Bus 60	: Pd=200.86, Qd=68.47 -> Pd=300.83, Qd=68.47
% INFO    : Bus 61	: Pd=0.0, Qd=0.0 -> Pd=0.00, Qd=0.00
% INFO    : Bus 62	: Pd=0.0, Qd=0.0 -> Pd=0.00, Qd=0.00
% INFO    : Bus 63	: Pd=110.14, Qd=36.81 -> Pd=164.96, Qd=36.81
% INFO    : Bus 64	: Pd=0.0, Qd=0.0 -> Pd=0.00, Qd=0.00
% INFO    : Bus 65	: Pd=50.0, Qd=12.0 -> Pd=74.89, Qd=12.00
% INFO    : Bus 66	: Pd=0.0, Qd=0.0 -> Pd=0.00, Qd=0.00
% INFO    : Bus 67	: Pd=80.0, Qd=20.0 -> Pd=119.82, Qd=20.00
% INFO    : Bus 68	: Pd=56.0, Qd=14.0 -> Pd=83.87, Qd=14.00
% INFO    : Bus 69	: Pd=0.0, Qd=0.0 -> Pd=0.00, Qd=0.00
% INFO    : Bus 70	: Pd=34.04, Qd=20.9 -> Pd=50.98, Qd=20.90
% INFO    : Bus 71	: Pd=0.0, Qd=0.0 -> Pd=0.00, Qd=0.00
% INFO    : Bus 72	: Pd=0.0, Qd=0.0 -> Pd=0.00, Qd=0.00
% INFO    : Bus 73	: Pd=0.0, Qd=0.0 -> Pd=0.00, Qd=0.00
% INFO    : Bus 74	: Pd=17.33, Qd=9.28 -> Pd=25.96, Qd=9.28
% INFO    : Bus 75	: Pd=0.0, Qd=0.0 -> Pd=0.00, Qd=0.00
% INFO    : Bus 76	: Pd=0.0, Qd=0.0 -> Pd=0.00, Qd=0.00
% INFO    : Bus 77	: Pd=0.55, Qd=0.24 -> Pd=0.82, Qd=0.24
% INFO    : Bus 78	: Pd=7.76, Qd=3.38 -> Pd=11.62, Qd=3.38
% INFO    : Bus 79	: Pd=0.0, Qd=0.0 -> Pd=0.00, Qd=0.00
% INFO    : Bus 80	: Pd=125.01, Qd=31.3 -> Pd=187.23, Qd=31.30
% INFO    : Bus 81	: Pd=379.0, Qd=92.49 -> Pd=567.63, Qd=92.49
% INFO    : Bus 82	: Pd=0.0, Qd=0.0 -> Pd=0.00, Qd=0.00
% INFO    : Bus 83	: Pd=25.98, Qd=18.84 -> Pd=38.91, Qd=18.84
% INFO    : Bus 84	: Pd=0.0, Qd=0.0 -> Pd=0.00, Qd=0.00
% INFO    : Bus 85	: Pd=15.83, Qd=10.92 -> Pd=23.71, Qd=10.92
% INFO    : Bus 86	: Pd=0.0, Qd=0.0 -> Pd=0.00, Qd=0.00
% INFO    : Bus 87	: Pd=8.34, Qd=8.96 -> Pd=12.49, Qd=8.96
% INFO    : Bus 88	: Pd=0.0, Qd=0.0 -> Pd=0.00, Qd=0.00
% INFO    : Bus 89	: Pd=15.47, Qd=8.04 -> Pd=23.17, Qd=8.04
% INFO    : Bus 90	: Pd=0.0, Qd=0.0 -> Pd=0.00, Qd=0.00
% INFO    : Bus 91	: Pd=8.26, Qd=4.25 -> Pd=12.37, Qd=4.25
% INFO    : Bus 92	: Pd=0.0, Qd=0.0 -> Pd=0.00, Qd=0.00
% INFO    : Bus 93	: Pd=15.11, Qd=10.0 -> Pd=22.63, Qd=10.00
% INFO    : Bus 94	: Pd=0.0, Qd=0.0 -> Pd=0.00, Qd=0.00
% INFO    : Bus 95	: Pd=0.0, Qd=0.0 -> Pd=0.00, Qd=0.00
% INFO    : Bus 96	: Pd=0.0, Qd=0.0 -> Pd=0.00, Qd=0.00
% INFO    : Bus 97	: Pd=0.0, Qd=0.0 -> Pd=0.00, Qd=0.00
% INFO    : Bus 98	: Pd=0.0, Qd=0.0 -> Pd=0.00, Qd=0.00
% INFO    : Bus 99	: Pd=0.0, Qd=0.0 -> Pd=0.00, Qd=0.00
% INFO    : Bus 100	: Pd=0.0, Qd=0.0 -> Pd=0.00, Qd=0.00
% INFO    : Bus 101	: Pd=0.0, Qd=0.0 -> Pd=0.00, Qd=0.00
% INFO    : Bus 102	: Pd=3.78, Qd=1.25 -> Pd=5.66, Qd=1.25
% INFO    : Bus 103	: Pd=0.0, Qd=0.0 -> Pd=0.00, Qd=0.00
% INFO    : Bus 104	: Pd=22.13, Qd=4.05 -> Pd=33.14, Qd=4.05
% INFO    : Bus 105	: Pd=5.35, Qd=2.33 -> Pd=8.01, Qd=2.33
% INFO    : Bus 106	: Pd=0.0, Qd=0.0 -> Pd=0.00, Qd=0.00
% INFO    : Bus 107	: Pd=0.0, Qd=0.0 -> Pd=0.00, Qd=0.00
% INFO    : Bus 108	: Pd=0.0, Qd=0.0 -> Pd=0.00, Qd=0.00
% INFO    : Bus 109	: Pd=0.0, Qd=0.0 -> Pd=0.00, Qd=0.00
% INFO    : Bus 110	: Pd=1.8, Qd=0.2 -> Pd=2.70, Qd=0.20
% INFO    : Bus 111	: Pd=0.0, Qd=0.0 -> Pd=0.00, Qd=0.00
% INFO    : Bus 112	: Pd=0.0, Qd=0.0 -> Pd=0.00, Qd=0.00
% INFO    : Bus 113	: Pd=0.0, Qd=0.0 -> Pd=0.00, Qd=0.00
% INFO    : Bus 114	: Pd=3.0, Qd=-1.0 -> Pd=3.00, Qd=-1.00
% INFO    : Bus 115	: Pd=0.0, Qd=0.0 -> Pd=0.00, Qd=0.00
% INFO    : Bus 116	: Pd=20.0, Qd=2.11 -> Pd=29.95, Qd=2.11
% INFO    : Bus 117	: Pd=4.0, Qd=1.05 -> Pd=5.99, Qd=1.05
% INFO    : Bus 118	: Pd=0.0, Qd=0.0 -> Pd=0.00, Qd=0.00
% INFO    : Bus 119	: Pd=0.0, Qd=0.0 -> Pd=0.00, Qd=0.00
% INFO    : Bus 120	: Pd=2.57, Qd=1.12 -> Pd=3.85, Qd=1.12
% INFO    : Bus 121	: Pd=0.0, Qd=0.0 -> Pd=0.00, Qd=0.00
% INFO    : Bus 122	: Pd=0.0, Qd=0.0 -> Pd=0.00, Qd=0.00
% INFO    : Bus 123	: Pd=0.0, Qd=0.0 -> Pd=0.00, Qd=0.00
% INFO    : Bus 124	: Pd=5.0, Qd=0.92 -> Pd=7.49, Qd=0.92
% INFO    : Bus 125	: Pd=0.0, Qd=0.0 -> Pd=0.00, Qd=0.00
% INFO    : Bus 126	: Pd=0.0, Qd=0.0 -> Pd=0.00, Qd=0.00
% INFO    : Bus 127	: Pd=0.0, Qd=0.0 -> Pd=0.00, Qd=0.00
% INFO    : Bus 128	: Pd=0.0, Qd=0.0 -> Pd=0.00, Qd=0.00
% INFO    : Bus 129	: Pd=0.0, Qd=0.0 -> Pd=0.00, Qd=0.00
% INFO    : Bus 130	: Pd=0.0, Qd=0.0 -> Pd=0.00, Qd=0.00
% INFO    : Bus 131	: Pd=9.0, Qd=1.47 -> Pd=13.48, Qd=1.47
% INFO    : Bus 132	: Pd=0.0, Qd=0.0 -> Pd=0.00, Qd=0.00
% INFO    : Bus 133	: Pd=13.0, Qd=1.0 -> Pd=19.47, Qd=1.00
% INFO    : Bus 134	: Pd=4.08, Qd=1.78 -> Pd=6.11, Qd=1.78
% INFO    : Bus 135	: Pd=0.0, Qd=0.0 -> Pd=0.00, Qd=0.00
% INFO    : Bus 136	: Pd=0.0, Qd=0.0 -> Pd=0.00, Qd=0.00
% INFO    : Bus 137	: Pd=0.0, Qd=0.0 -> Pd=0.00, Qd=0.00
% INFO    : Bus 138	: Pd=0.0, Qd=0.0 -> Pd=0.00, Qd=0.00
% INFO    : Bus 139	: Pd=2.27, Qd=0.99 -> Pd=3.40, Qd=0.99
% INFO    : Bus 140	: Pd=0.0, Qd=0.0 -> Pd=0.00, Qd=0.00
% INFO    : Bus 141	: Pd=0.0, Qd=0.0 -> Pd=0.00, Qd=0.00
% INFO    : Bus 142	: Pd=0.0, Qd=0.0 -> Pd=0.00, Qd=0.00
% INFO    : Bus 143	: Pd=8.08, Qd=0.5 -> Pd=12.10, Qd=0.50
% INFO    : Bus 144	: Pd=0.0, Qd=0.0 -> Pd=0.00, Qd=0.00
% INFO    : Bus 145	: Pd=0.0, Qd=0.0 -> Pd=0.00, Qd=0.00
% INFO    : Bus 146	: Pd=0.0, Qd=0.0 -> Pd=0.00, Qd=0.00
% INFO    : Bus 147	: Pd=0.0, Qd=0.0 -> Pd=0.00, Qd=0.00
% INFO    : Bus 148	: Pd=0.0, Qd=0.0 -> Pd=0.00, Qd=0.00
% INFO    : Bus 149	: Pd=0.0, Qd=0.0 -> Pd=0.00, Qd=0.00
% INFO    : Bus 150	: Pd=0.0, Qd=0.0 -> Pd=0.00, Qd=0.00
% INFO    : Bus 151	: Pd=0.0, Qd=0.0 -> Pd=0.00, Qd=0.00
% INFO    : Bus 152	: Pd=0.0, Qd=0.0 -> Pd=0.00, Qd=0.00
% INFO    : Bus 153	: Pd=0.0, Qd=0.0 -> Pd=0.00, Qd=0.00
% INFO    : Bus 154	: Pd=0.0, Qd=0.0 -> Pd=0.00, Qd=0.00
% INFO    : Bus 155	: Pd=0.01, Qd=0.01 -> Pd=0.01, Qd=0.01
% INFO    : Bus 156	: Pd=17.38, Qd=4.4 -> Pd=26.03, Qd=4.40
% INFO    : Bus 157	: Pd=0.0, Qd=0.0 -> Pd=0.00, Qd=0.00
% INFO    : Bus 158	: Pd=0.0, Qd=0.0 -> Pd=0.00, Qd=0.00
% INFO    : Bus 159	: Pd=10.14, Qd=2.7 -> Pd=15.19, Qd=2.70
% INFO    : Bus 160	: Pd=0.0, Qd=0.0 -> Pd=0.00, Qd=0.00
% INFO    : Bus 161	: Pd=0.0, Qd=0.0 -> Pd=0.00, Qd=0.00
% INFO    : Bus 162	: Pd=2.87, Qd=0.4 -> Pd=4.30, Qd=0.40
% INFO    : Bus 163	: Pd=0.0, Qd=0.0 -> Pd=0.00, Qd=0.00
% INFO    : Bus 164	: Pd=0.0, Qd=0.0 -> Pd=0.00, Qd=0.00
% INFO    : Bus 165	: Pd=0.0, Qd=0.0 -> Pd=0.00, Qd=0.00
% INFO    : Bus 166	: Pd=0.0, Qd=0.0 -> Pd=0.00, Qd=0.00
% INFO    : Bus 167	: Pd=7.26, Qd=0.4 -> Pd=10.87, Qd=0.40
% INFO    : Bus 168	: Pd=0.0, Qd=0.0 -> Pd=0.00, Qd=0.00
% INFO    : Bus 169	: Pd=0.0, Qd=0.0 -> Pd=0.00, Qd=0.00
% INFO    : Bus 170	: Pd=0.0, Qd=0.0 -> Pd=0.00, Qd=0.00
% INFO    : Bus 171	: Pd=0.0, Qd=0.0 -> Pd=0.00, Qd=0.00
% INFO    : Bus 172	: Pd=0.0, Qd=0.0 -> Pd=0.00, Qd=0.00
% INFO    : Bus 173	: Pd=1.73, Qd=0.2 -> Pd=2.59, Qd=0.20
% INFO    : Bus 174	: Pd=0.0, Qd=0.0 -> Pd=0.00, Qd=0.00
% INFO    : Bus 175	: Pd=0.0, Qd=0.0 -> Pd=0.00, Qd=0.00
% INFO    : Bus 176	: Pd=0.0, Qd=0.0 -> Pd=0.00, Qd=0.00
% INFO    : Bus 177	: Pd=0.0, Qd=0.0 -> Pd=0.00, Qd=0.00
% INFO    : Bus 178	: Pd=5.2, Qd=3.0 -> Pd=7.79, Qd=3.00
% INFO    : Bus 179	: Pd=0.0, Qd=0.0 -> Pd=0.00, Qd=0.00
% INFO    : Bus 180	: Pd=0.0, Qd=0.0 -> Pd=0.00, Qd=0.00
% INFO    : Bus 181	: Pd=0.0, Qd=0.0 -> Pd=0.00, Qd=0.00
% INFO    : Bus 182	: Pd=0.0, Qd=0.0 -> Pd=0.00, Qd=0.00
% INFO    : Bus 183	: Pd=0.0, Qd=0.0 -> Pd=0.00, Qd=0.00
% INFO    : Bus 184	: Pd=5.21, Qd=3.0 -> Pd=7.80, Qd=3.00
% INFO    : Bus 185	: Pd=9.67, Qd=1.6 -> Pd=14.48, Qd=1.60
% INFO    : Bus 186	: Pd=0.0, Qd=0.0 -> Pd=0.00, Qd=0.00
% INFO    : Bus 187	: Pd=0.0, Qd=0.0 -> Pd=0.00, Qd=0.00
% INFO    : Bus 188	: Pd=0.0, Qd=0.0 -> Pd=0.00, Qd=0.00
% INFO    : Bus 189	: Pd=0.0, Qd=0.0 -> Pd=0.00, Qd=0.00
% INFO    : 
% INFO    : === Generator Setpoint Replacement Notes ===
% INFO    : Gen at bus 10	: Pg=79.166, Qg=38.0 -> Pg=61.0, Qg=22.0
% INFO    : Gen at bus 2	: Pg=115.0, Qg=34.0 -> Pg=109.0, Qg=38.0
% INFO    : Gen at bus 3	: Pg=95.0, Qg=34.0 -> Pg=114.0, Qg=39.0
% INFO    : Gen at bus 4	: Pg=0.0, Qg=17.0 -> Pg=133.0, Qg=47.0
% INFO    : Gen at bus 8	: Pg=30.0, Qg=15.0 -> Pg=61.0, Qg=22.0
% INFO    : Gen at bus 9	: Pg=32.0, Qg=16.0 -> Pg=61.0, Qg=22.0
% INFO    : Gen at bus 13	: Pg=145.492, Qg=42.0 -> Pg=66.0, Qg=22.0
% INFO    : Gen at bus 14	: Pg=26.062, Qg=33.998 -> Pg=66.0, Qg=22.0
% INFO    : Gen at bus 16	: Pg=0.0, Qg=17.0 -> Pg=35.0, Qg=19.0
% INFO    : Gen at bus 18	: Pg=0.0, Qg=42.0 -> Pg=116.0, Qg=40.0
% INFO    : Gen at bus 19	: Pg=124.0, Qg=42.0 -> Pg=116.0, Qg=40.0
% INFO    : Gen at bus 27	: Pg=0.0, Qg=11.6 -> Pg=32.0, Qg=21.0
% INFO    : Gen at bus 28	: Pg=28.495, Qg=11.6 -> Pg=33.0, Qg=21.0
% INFO    : Gen at bus 29	: Pg=13.0, Qg=7.0 -> Pg=62.0, Qg=24.0
% INFO    : Gen at bus 32	: Pg=11.0, Qg=6.0 -> Pg=1.0, Qg=6.0
% INFO    : Gen at bus 33	: Pg=15.708, Qg=9.9 -> Pg=1.0, Qg=6.0
% INFO    : Gen at bus 36	: Pg=52.0, Qg=3.3 -> Pg=55.0, Qg=20.0
% INFO    : Gen at bus 42	: Pg=42.0, Qg=21.0 -> Pg=168.0, Qg=71.0
% INFO    : Gen at bus 43	: Pg=18.528, Qg=22.0 -> Pg=168.0, Qg=71.0
% INFO    : Gen at bus 50	: Pg=62.135, Qg=20.0 -> Pg=38.0, Qg=29.0
% INFO    : Gen at bus 51	: Pg=0.0, Qg=20.0 -> Pg=38.0, Qg=29.0
% INFO    : Gen at bus 52	: Pg=112.0, Qg=20.0 -> Pg=38.0, Qg=29.0
% INFO    : Gen at bus 53	: Pg=0.0, Qg=20.0 -> Pg=38.0, Qg=29.0
% INFO    : Gen at bus 98	: Pg=33.206, Qg=22.415 -> Pg=31.0, Qg=16.0
% INFO    : Gen at bus 99	: Pg=0.0, Qg=22.99 -> Pg=31.0, Qg=16.0
% INFO    : Gen at bus 102	: Pg=142.412, Qg=30.0 -> Pg=61.0, Qg=21.0
% INFO    : Gen at bus 104	: Pg=0.0, Qg=3.3 -> Pg=201.0, Qg=63.0
% INFO    : Gen at bus 117	: Pg=6.0, Qg=2.5 -> Pg=44.0, Qg=4.0
% INFO    : Gen at bus 126	: Pg=40.0, Qg=18.205 -> Pg=20.0, Qg=1.0
% INFO    : Gen at bus 127	: Pg=101.0, Qg=20.254 -> Pg=20.0, Qg=1.0
% INFO    : Gen at bus 138	: Pg=58.0, Qg=-13.524 -> Pg=16.0, Qg=5.0
% INFO    : Gen at bus 139	: Pg=0.0, Qg=-13.513 -> Pg=16.0, Qg=-4.0
% INFO    : Gen at bus 142	: Pg=7.0, Qg=0.064 -> Pg=6.0, Qg=-6.0
% INFO    : Gen at bus 144	: Pg=21.0, Qg=0.837 -> Pg=1.0, Qg=5.0
% INFO    : Gen at bus 186	: Pg=6.0, Qg=0.0 -> Pg=62.0, Qg=-13.0
% INFO    : 
% INFO    : === Generator Reactive Capacity Atleast Setpoint Value Notes ===
% INFO    : Gen at bus 10	: Qg 22.0, Qmin -20.0, Qmax 38.0 -> Qmin -26.4, Qmax 38.0
% INFO    : Gen at bus 2	: Qg 38.0, Qmin -20.0, Qmax 34.0 -> Qmin -45.6, Qmax 45.6
% INFO    : Gen at bus 3	: Qg 39.0, Qmin -20.0, Qmax 34.0 -> Qmin -46.8, Qmax 46.8
% INFO    : Gen at bus 4	: Qg 47.0, Qmin -10.0, Qmax 17.0 -> Qmin -56.4, Qmax 56.4
% INFO    : Gen at bus 8	: Qg 22.0, Qmin -15.0, Qmax 15.0 -> Qmin -26.4, Qmax 26.4
% INFO    : Gen at bus 9	: Qg 22.0, Qmin -16.0, Qmax 16.0 -> Qmin -26.4, Qmax 26.4
% INFO    : Gen at bus 13	: Qg 22.0, Qmin -20.0, Qmax 42.0 -> Qmin -26.4, Qmax 42.0
% INFO    : Gen at bus 14	: Qg 22.0, Qmin -20.0, Qmax 42.0 -> Qmin -26.4, Qmax 42.0
% INFO    : Gen at bus 16	: Qg 19.0, Qmin -10.0, Qmax 17.0 -> Qmin -22.8, Qmax 22.8
% INFO    : Gen at bus 18	: Qg 40.0, Qmin -20.0, Qmax 42.0 -> Qmin -48.0, Qmax 42.0
% INFO    : Gen at bus 19	: Qg 40.0, Qmin -20.0, Qmax 42.0 -> Qmin -48.0, Qmax 42.0
% INFO    : Gen at bus 27	: Qg 21.0, Qmin -5.0, Qmax 11.6 -> Qmin -25.2, Qmax 25.2
% INFO    : Gen at bus 28	: Qg 21.0, Qmin -5.0, Qmax 11.6 -> Qmin -25.2, Qmax 25.2
% INFO    : Gen at bus 29	: Qg 24.0, Qmin -5.0, Qmax 7.0 -> Qmin -28.8, Qmax 28.8
% INFO    : Gen at bus 32	: Qg 6.0, Qmin -5.0, Qmax 6.0 -> Qmin -7.2, Qmax 6.0
% INFO    : Gen at bus 33	: Qg 6.0, Qmin -5.0, Qmax 9.9 -> Qmin -7.2, Qmax 9.9
% INFO    : Gen at bus 36	: Qg 20.0, Qmin -2.0, Qmax 3.3 -> Qmin -24.0, Qmax 24.0
% INFO    : Gen at bus 42	: Qg 71.0, Qmin -20.0, Qmax 21.0 -> Qmin -85.2, Qmax 85.2
% INFO    : Gen at bus 43	: Qg 71.0, Qmin -20.0, Qmax 22.0 -> Qmin -85.2, Qmax 85.2
% INFO    : Gen at bus 50	: Qg 29.0, Qmin -20.0, Qmax 20.0 -> Qmin -34.8, Qmax 34.8
% INFO    : Gen at bus 51	: Qg 29.0, Qmin -20.0, Qmax 20.0 -> Qmin -34.8, Qmax 34.8
% INFO    : Gen at bus 52	: Qg 29.0, Qmin -20.0, Qmax 20.0 -> Qmin -34.8, Qmax 34.8
% INFO    : Gen at bus 53	: Qg 29.0, Qmin -20.0, Qmax 20.0 -> Qmin -34.8, Qmax 34.8
% INFO    : Gen at bus 104	: Qg 63.0, Qmin -3.3, Qmax 3.3 -> Qmin -75.6, Qmax 75.6
% INFO    : Gen at bus 117	: Qg 4.0, Qmin 0.0, Qmax 2.5 -> Qmin -4.8, Qmax 4.8
% INFO    : Gen at bus 142	: Qg -6.0, Qmin 0.0, Qmax 1.3 -> Qmin -7.2, Qmax 7.2
% INFO    : Gen at bus 144	: Qg 5.0, Qmin 0.0, Qmax 11.0 -> Qmin -6.0, Qmax 11.0
% INFO    : Gen at bus 186	: Qg -13.0, Qmin 0.0, Qmax 3.0 -> Qmin -15.6, Qmax 15.6
% INFO    : 
% INFO    : === Generator Classification Notes ===
% INFO    : PEL    1   -     7.93
% INFO    : COW    2   -     4.34
% INFO    : NG     32  -    87.73
% INFO    : 
% INFO    : === Generator Active Capacity Stat Model Notes ===
% INFO    : Gen at bus 10 - NG	: Pg=61.0, Pmax=228.0 -> Pmax=169   samples: 2
% INFO    : Gen at bus 2 - NG	: Pg=109.0, Pmax=115.0 -> Pmax=155   samples: 1
% INFO    : Gen at bus 3 - NG	: Pg=114.0, Pmax=95.0 -> Pmax=294   samples: 5
% INFO    : Gen at bus 4 - NG	: Pg=133.0, Pmax=128.0 -> Pmax=208   samples: 1
% INFO    : Gen at bus 8 - NG	: Pg=61.0, Pmax=30.0 -> Pmax=104   samples: 1
% INFO    : Gen at bus 9 - COW	: Pg=61.0, Pmax=32.0 -> Pmax=277   samples: 1
% INFO    : Gen at bus 13 - NG	: Pg=66.0, Pmax=236.0 -> Pmax=91   samples: 1
% INFO    : Gen at bus 14 - NG	: Pg=66.0, Pmax=164.0 -> Pmax=253   samples: 2
% INFO    : Gen at bus 16 - NG	: Pg=35.0, Pmax=164.0 -> Pmax=46   samples: 2
% INFO    : Gen at bus 18 - NG	: Pg=116.0, Pmax=151.0 -> Pmax=155   samples: 1
% INFO    : Gen at bus 19 - NG	: Pg=116.0, Pmax=124.0 -> Pmax=188   samples: 7
% INFO    : Gen at bus 27 - NG	: Pg=32.0, Pmax=46.0 -> Pmax=99   samples: 2
% INFO    : Gen at bus 28 - NG	: Pg=33.0, Pmax=63.0 -> Pmax=84   samples: 2
% INFO    : Gen at bus 29 - NG	: Pg=62.0, Pmax=13.0 -> Pmax=111   samples: 2
% INFO    : Gen at bus 32 - NG	: Pg=1.0, Pmax=11.0 -> Pmax=1   samples: 57
% INFO    : Gen at bus 33 - NG	: Pg=1.0, Pmax=20.0 -> Pmax=4   samples: 93
% INFO    : Gen at bus 36 - NG	: Pg=55.0, Pmax=52.0 -> Pmax=158   samples: 1
% INFO    : Gen at bus 42 - NG	: Pg=168.0, Pmax=42.0 -> Pmax=171   samples: 1
% INFO    : Gen at bus 43 - PEL	: Pg=168.0, Pmax=166.0 -> Pmax=243   samples: 53
% INFO    : Gen at bus 50 - NG	: Pg=38.0, Pmax=72.0 -> Pmax=184   samples: 1
% INFO    : Gen at bus 51 - NG	: Pg=38.0, Pmax=88.0 -> Pmax=113   samples: 1
% INFO    : Gen at bus 52 - NG	: Pg=38.0, Pmax=112.0 -> Pmax=111   samples: 1
% INFO    : Gen at bus 53 - NG	: Pg=38.0, Pmax=111.0 -> Pmax=46   samples: 1
% INFO    : Gen at bus 98 - COW	: Pg=31.0, Pmax=121.0 -> Pmax=53   samples: 4
% INFO    : Gen at bus 99 - NG	: Pg=31.0, Pmax=65.0 -> Pmax=128   samples: 1
% INFO    : Gen at bus 102 - NG	: Pg=61.0, Pmax=218.0 -> Pmax=81   samples: 2
% INFO    : Gen at bus 104 - NG	: Pg=201.0, Pmax=11.0 -> Pmax=282   samples: 6
% INFO    : Gen at bus 117 - NG	: Pg=44.0, Pmax=6.0 -> Pmax=194   samples: 1
% INFO    : Gen at bus 126 - NG	: Pg=20.0, Pmax=40.0 -> Pmax=84   samples: 1
% INFO    : Gen at bus 127 - NG	: Pg=20.0, Pmax=101.0 -> Pmax=64   samples: 3
% INFO    : Gen at bus 138 - NG	: Pg=16.0, Pmax=58.0 -> Pmax=37   samples: 1
% INFO    : Gen at bus 139 - NG	: Pg=16.0, Pmax=95.0 -> Pmax=56   samples: 1
% INFO    : Gen at bus 142 - NG	: Pg=6.0, Pmax=7.0 -> Pmax=26   samples: 9
% INFO    : Gen at bus 144 - NG	: Pg=1.0, Pmax=21.0 -> Pmax=1   samples: 20
% INFO    : Gen at bus 186 - NG	: Pg=62.0, Pmax=6.0 -> Pmax=217   samples: 1
% INFO    : 
% INFO    : === Generator Active Capacity LB Model Notes ===
% INFO    : 
% INFO    : === Generator Reactive Capacity Atleast Max 50 Percent Active Model Notes ===
% INFO    : Gen at bus 10 - NG	: Pmax 169.0, Qmin -26.4, Qmax 38.0 -> Qmin -85.0, Qmax 85.0
% INFO    : Gen at bus 2 - NG	: Pmax 155.0, Qmin -45.6, Qmax 45.6 -> Qmin -78.0, Qmax 78.0
% INFO    : Gen at bus 3 - NG	: Pmax 294.0, Qmin -46.8, Qmax 46.8 -> Qmin -147.0, Qmax 147.0
% INFO    : Gen at bus 4 - NG	: Pmax 208.0, Qmin -56.4, Qmax 56.4 -> Qmin -104.0, Qmax 104.0
% INFO    : Gen at bus 8 - NG	: Pmax 104.0, Qmin -26.4, Qmax 26.4 -> Qmin -52.0, Qmax 52.0
% INFO    : Gen at bus 9 - COW	: Pmax 277.0, Qmin -26.4, Qmax 26.4 -> Qmin -139.0, Qmax 139.0
% INFO    : Gen at bus 13 - NG	: Pmax 91.0, Qmin -26.4, Qmax 42.0 -> Qmin -46.0, Qmax 46.0
% INFO    : Gen at bus 14 - NG	: Pmax 253.0, Qmin -26.4, Qmax 42.0 -> Qmin -127.0, Qmax 127.0
...